/*---------------------------------------------------------------------------*\
| =========                 |                                                 |
| \\      /  F ield         | OpenFOAM: The Open Source CFD Toolbox           |
|  \\    /   O peration     | Version:  4.1                                   |
|   \\  /    A nd           | Web:      www.OpenFOAM.org                      |
|    \\/     M anipulation  |                                                 |
\*---------------------------------------------------------------------------*/
Build  : 4.1
Exec   : simpleFoam
Date   : Jan 23 2019
Time   : 19:38:45
Host   : "caelinux"
PID    : 7475
Case   : /home/caelinux/OpenFOAM/caelinux-4.1/run/tutorials/incompressible/dualJets3Mesh_kappaEpsilonTurbulenceOff_v2
nProcs : 1
sigFpe : Enabling floating point exception trapping (FOAM_SIGFPE).
fileModificationChecking : Monitoring run-time modified files using timeStampMaster
allowSystemOperations : Allowing user-supplied system call operations

// * * * * * * * * * * * * * * * * * * * * * * * * * * * * * * * * * * * * * //
Create time

Create mesh for time = 0


SIMPLE: convergence criteria
    field p	 tolerance 1e-05
    field U	 tolerance 1e-05
    field "(k|epsilom|omega|R)"	 tolerance 1e-05

Reading field p

AMI: Creating addressing and weights between 20 source faces and 20 target faces
AMI: Patch source sum(weights) min/max/average = 1, 1, 1
AMI: Patch target sum(weights) min/max/average = 1, 1, 1
AMI: Creating addressing and weights between 20 source faces and 20 target faces
AMI: Patch source sum(weights) min/max/average = 1, 1, 1
AMI: Patch target sum(weights) min/max/average = 1, 1, 1
Reading field U

Reading/calculating face flux field phi

Selecting incompressible transport model Newtonian
Selecting turbulence model type RAS
Selecting RAS turbulence model kEpsilon
kEpsilonCoeffs
{
    Cmu             0.09;
    C1              1.24;
    C2              2.05;
    C3              -0.33;
    sigmak          1;
    sigmaEps        1.3;
}

No MRF models present

No finite volume options present


Starting time loop

Time = 0.05

smoothSolver:  Solving for Ux, Initial residual = 0, Final residual = 0, No Iterations 0
smoothSolver:  Solving for Uy, Initial residual = 1, Final residual = 1.21791e-10, No Iterations 1
smoothSolver:  Solving for Uz, Initial residual = 1, Final residual = 1.4091e-10, No Iterations 1
GAMG:  Solving for p, Initial residual = 1, Final residual = 9.83386e-07, No Iterations 102
time step continuity errors : sum local = 2.49923e-10, global = 1.77202e-11, cumulative = 1.77202e-11
smoothSolver:  Solving for epsilon, Initial residual = 0.999996, Final residual = 7.02337e-07, No Iterations 1
smoothSolver:  Solving for k, Initial residual = 1, Final residual = 2.95269e-06, No Iterations 1
ExecutionTime = 0.05 s  ClockTime = 1 s

Time = 0.1

smoothSolver:  Solving for Ux, Initial residual = 0.142763, Final residual = 6.4857e-06, No Iterations 2
smoothSolver:  Solving for Uy, Initial residual = 0.0975322, Final residual = 9.9114e-07, No Iterations 2
smoothSolver:  Solving for Uz, Initial residual = 0.0492683, Final residual = 2.84534e-07, No Iterations 2
GAMG:  Solving for p, Initial residual = 0.401064, Final residual = 8.5517e-07, No Iterations 39
time step continuity errors : sum local = 6.93423e-09, global = 5.691e-09, cumulative = 5.70872e-09
smoothSolver:  Solving for epsilon, Initial residual = 0.999953, Final residual = 5.50805e-07, No Iterations 1
smoothSolver:  Solving for k, Initial residual = 0.947685, Final residual = 2.83619e-06, No Iterations 1
ExecutionTime = 0.07 s  ClockTime = 1 s

Time = 0.15

smoothSolver:  Solving for Ux, Initial residual = 0.109028, Final residual = 5.53927e-06, No Iterations 2
smoothSolver:  Solving for Uy, Initial residual = 0.25416, Final residual = 4.33977e-06, No Iterations 2
smoothSolver:  Solving for Uz, Initial residual = 0.127637, Final residual = 1.59782e-06, No Iterations 2
GAMG:  Solving for p, Initial residual = 0.00175228, Final residual = 8.91732e-07, No Iterations 38
time step continuity errors : sum local = 2.8165e-06, global = 6.1343e-08, cumulative = 6.70517e-08
smoothSolver:  Solving for epsilon, Initial residual = 0.999942, Final residual = 5.75834e-07, No Iterations 1
smoothSolver:  Solving for k, Initial residual = 0.617762, Final residual = 2.42873e-06, No Iterations 1
ExecutionTime = 0.09 s  ClockTime = 1 s

Time = 0.2

smoothSolver:  Solving for Ux, Initial residual = 0.149006, Final residual = 5.98577e-06, No Iterations 2
smoothSolver:  Solving for Uy, Initial residual = 0.14175, Final residual = 2.29071e-06, No Iterations 2
smoothSolver:  Solving for Uz, Initial residual = 0.118271, Final residual = 1.00688e-06, No Iterations 2
GAMG:  Solving for p, Initial residual = 0.000107475, Final residual = 8.07857e-07, No Iterations 18
time step continuity errors : sum local = 3.04642e-05, global = -8.43124e-07, cumulative = -7.76072e-07
smoothSolver:  Solving for epsilon, Initial residual = 0.99994, Final residual = 5.82787e-07, No Iterations 1
smoothSolver:  Solving for k, Initial residual = 0.342092, Final residual = 1.80243e-06, No Iterations 1
ExecutionTime = 0.11 s  ClockTime = 1 s

Time = 0.25

smoothSolver:  Solving for Ux, Initial residual = 0.0932663, Final residual = 3.8653e-06, No Iterations 2
smoothSolver:  Solving for Uy, Initial residual = 0.142673, Final residual = 1.5057e-06, No Iterations 2
smoothSolver:  Solving for Uz, Initial residual = 0.043792, Final residual = 4.22173e-07, No Iterations 2
GAMG:  Solving for p, Initial residual = 0.000289291, Final residual = 6.23448e-07, No Iterations 8
time step continuity errors : sum local = 9.11244e-06, global = 2.11389e-06, cumulative = 1.33782e-06
smoothSolver:  Solving for epsilon, Initial residual = 0.999937, Final residual = 5.77176e-07, No Iterations 1
smoothSolver:  Solving for k, Initial residual = 0.166109, Final residual = 1.57036e-06, No Iterations 1
ExecutionTime = 0.12 s  ClockTime = 1 s

Time = 0.3

smoothSolver:  Solving for Ux, Initial residual = 0.0725766, Final residual = 3.05601e-06, No Iterations 2
smoothSolver:  Solving for Uy, Initial residual = 0.0603566, Final residual = 8.21461e-07, No Iterations 2
smoothSolver:  Solving for Uz, Initial residual = 0.0547512, Final residual = 4.5069e-07, No Iterations 2
GAMG:  Solving for p, Initial residual = 0.000407183, Final residual = 9.95142e-07, No Iterations 24
time step continuity errors : sum local = 8.25831e-06, global = -3.12466e-07, cumulative = 1.02535e-06
smoothSolver:  Solving for epsilon, Initial residual = 0.999932, Final residual = 5.81252e-07, No Iterations 1
smoothSolver:  Solving for k, Initial residual = 0.0744732, Final residual = 1.26642e-06, No Iterations 1
ExecutionTime = 0.14 s  ClockTime = 1 s

Time = 0.35

smoothSolver:  Solving for Ux, Initial residual = 0.0762474, Final residual = 2.96125e-06, No Iterations 2
smoothSolver:  Solving for Uy, Initial residual = 0.0251815, Final residual = 4.01723e-07, No Iterations 2
smoothSolver:  Solving for Uz, Initial residual = 0.0460189, Final residual = 3.57911e-07, No Iterations 2
GAMG:  Solving for p, Initial residual = 0.000678127, Final residual = 8.38789e-07, No Iterations 17
time step continuity errors : sum local = 3.04031e-06, global = 1.35083e-07, cumulative = 1.16043e-06
smoothSolver:  Solving for epsilon, Initial residual = 0.999931, Final residual = 5.7974e-07, No Iterations 1
smoothSolver:  Solving for k, Initial residual = 0.0323035, Final residual = 1.33906e-06, No Iterations 1
ExecutionTime = 0.15 s  ClockTime = 1 s

Time = 0.4

smoothSolver:  Solving for Ux, Initial residual = 0.0697792, Final residual = 3.74411e-06, No Iterations 2
smoothSolver:  Solving for Uy, Initial residual = 0.0615926, Final residual = 6.56508e-07, No Iterations 2
smoothSolver:  Solving for Uz, Initial residual = 0.0268965, Final residual = 3.08031e-07, No Iterations 2
GAMG:  Solving for p, Initial residual = 0.000686548, Final residual = 7.99678e-07, No Iterations 26
time step continuity errors : sum local = 1.59716e-06, global = -6.96814e-08, cumulative = 1.09075e-06
smoothSolver:  Solving for epsilon, Initial residual = 0.999931, Final residual = 5.83963e-07, No Iterations 1
smoothSolver:  Solving for k, Initial residual = 0.0138282, Final residual = 1.01514e-06, No Iterations 1
ExecutionTime = 0.17 s  ClockTime = 1 s

Time = 0.45

smoothSolver:  Solving for Ux, Initial residual = 0.0681012, Final residual = 3.2311e-06, No Iterations 2
smoothSolver:  Solving for Uy, Initial residual = 0.0337244, Final residual = 4.12924e-07, No Iterations 2
smoothSolver:  Solving for Uz, Initial residual = 0.040587, Final residual = 3.93492e-07, No Iterations 2
GAMG:  Solving for p, Initial residual = 0.000257213, Final residual = 8.64676e-07, No Iterations 20
time step continuity errors : sum local = 3.30763e-06, global = 1.5739e-07, cumulative = 1.24814e-06
smoothSolver:  Solving for epsilon, Initial residual = 0.999645, Final residual = 5.84106e-07, No Iterations 1
smoothSolver:  Solving for k, Initial residual = 0.00594363, Final residual = 1.26852e-06, No Iterations 1
ExecutionTime = 0.18 s  ClockTime = 1 s

Time = 0.5

smoothSolver:  Solving for Ux, Initial residual = 0.0577619, Final residual = 2.34357e-06, No Iterations 2
smoothSolver:  Solving for Uy, Initial residual = 0.0409515, Final residual = 4.29291e-07, No Iterations 2
smoothSolver:  Solving for Uz, Initial residual = 0.0244556, Final residual = 3.18258e-07, No Iterations 2
GAMG:  Solving for p, Initial residual = 0.00242723, Final residual = 9.80578e-07, No Iterations 19
time step continuity errors : sum local = 4.20603e-07, global = -4.61214e-08, cumulative = 1.20202e-06
smoothSolver:  Solving for epsilon, Initial residual = 0.99853, Final residual = 5.83181e-07, No Iterations 1
smoothSolver:  Solving for k, Initial residual = 0.00257991, Final residual = 1.16849e-06, No Iterations 1
ExecutionTime = 0.2 s  ClockTime = 1 s

Time = 0.55

smoothSolver:  Solving for Ux, Initial residual = 0.0561959, Final residual = 2.41203e-06, No Iterations 2
smoothSolver:  Solving for Uy, Initial residual = 0.023944, Final residual = 3.64516e-07, No Iterations 2
smoothSolver:  Solving for Uz, Initial residual = 0.0256987, Final residual = 2.79053e-07, No Iterations 2
GAMG:  Solving for p, Initial residual = 0.00193458, Final residual = 8.50721e-07, No Iterations 32
time step continuity errors : sum local = 3.46522e-07, global = 1.90208e-08, cumulative = 1.22104e-06
smoothSolver:  Solving for epsilon, Initial residual = 0.87559, Final residual = 5.15152e-07, No Iterations 1
smoothSolver:  Solving for k, Initial residual = 0.00113033, Final residual = 1.1791e-06, No Iterations 1
ExecutionTime = 0.22 s  ClockTime = 1 s

Time = 0.6

smoothSolver:  Solving for Ux, Initial residual = 0.0527294, Final residual = 2.5728e-06, No Iterations 2
smoothSolver:  Solving for Uy, Initial residual = 0.0193223, Final residual = 2.84725e-07, No Iterations 2
smoothSolver:  Solving for Uz, Initial residual = 0.0255836, Final residual = 3.55528e-07, No Iterations 2
GAMG:  Solving for p, Initial residual = 0.000630714, Final residual = 8.64072e-07, No Iterations 22
time step continuity errors : sum local = 9.36788e-07, global = -6.15907e-08, cumulative = 1.15945e-06
smoothSolver:  Solving for epsilon, Initial residual = 0.515341, Final residual = 2.95337e-07, No Iterations 1
smoothSolver:  Solving for k, Initial residual = 0.000502499, Final residual = 1.44597e-06, No Iterations 1
bounding k, min: -0.00038164 max: 10.9284 average: 0.332469
ExecutionTime = 0.23 s  ClockTime = 1 s

Time = 0.65

smoothSolver:  Solving for Ux, Initial residual = 0.0537546, Final residual = 2.60614e-06, No Iterations 2
smoothSolver:  Solving for Uy, Initial residual = 0.0275163, Final residual = 4.21024e-07, No Iterations 2
smoothSolver:  Solving for Uz, Initial residual = 0.0192505, Final residual = 1.91172e-07, No Iterations 2
GAMG:  Solving for p, Initial residual = 0.0014903, Final residual = 8.54922e-07, No Iterations 24
time step continuity errors : sum local = 3.67257e-07, global = 2.80366e-08, cumulative = 1.18749e-06
smoothSolver:  Solving for epsilon, Initial residual = 0.263799, Final residual = 2.12864e-07, No Iterations 1
smoothSolver:  Solving for k, Initial residual = 0.000241489, Final residual = 1.53358e-06, No Iterations 1
bounding k, min: -0.454101 max: 12.428 average: 0.388548
ExecutionTime = 0.25 s  ClockTime = 1 s

Time = 0.7

smoothSolver:  Solving for Ux, Initial residual = 0.0524169, Final residual = 2.67755e-06, No Iterations 2
smoothSolver:  Solving for Uy, Initial residual = 0.0172324, Final residual = 3.30108e-07, No Iterations 2
smoothSolver:  Solving for Uz, Initial residual = 0.02636, Final residual = 6.89614e-07, No Iterations 2
GAMG:  Solving for p, Initial residual = 0.000668246, Final residual = 8.57128e-07, No Iterations 26
time step continuity errors : sum local = 5.50387e-07, global = -4.32724e-08, cumulative = 1.14421e-06
smoothSolver:  Solving for epsilon, Initial residual = 0.11592, Final residual = 2.11493e-07, No Iterations 1
smoothSolver:  Solving for k, Initial residual = 0.000120845, Final residual = 1.88201e-06, No Iterations 1
bounding k, min: -0.0767375 max: 14.8177 average: 0.457405
ExecutionTime = 0.26 s  ClockTime = 1 s

Time = 0.75

smoothSolver:  Solving for Ux, Initial residual = 0.0542263, Final residual = 2.62833e-06, No Iterations 2
smoothSolver:  Solving for Uy, Initial residual = 0.0187346, Final residual = 2.72777e-07, No Iterations 2
smoothSolver:  Solving for Uz, Initial residual = 0.0172268, Final residual = 1.81887e-07, No Iterations 2
GAMG:  Solving for p, Initial residual = 0.0449585, Final residual = 8.51308e-07, No Iterations 42
time step continuity errors : sum local = 8.69997e-09, global = 6.86856e-10, cumulative = 1.1449e-06
smoothSolver:  Solving for epsilon, Initial residual = 0.0507918, Final residual = 3.83057e-07, No Iterations 1
bounding epsilon, min: -0.836206 max: 2180.89 average: 0.784314
smoothSolver:  Solving for k, Initial residual = 8.33734e-05, Final residual = 1.95587e-06, No Iterations 1
bounding k, min: -0.997384 max: 17.8873 average: 0.535592
ExecutionTime = 0.28 s  ClockTime = 1 s

Time = 0.8

smoothSolver:  Solving for Ux, Initial residual = 0.0527722, Final residual = 2.64025e-06, No Iterations 2
smoothSolver:  Solving for Uy, Initial residual = 0.0150552, Final residual = 1.66625e-07, No Iterations 2
smoothSolver:  Solving for Uz, Initial residual = 0.016777, Final residual = 2.2119e-07, No Iterations 2
GAMG:  Solving for p, Initial residual = 0.00380117, Final residual = 9.29079e-07, No Iterations 41
time step continuity errors : sum local = 9.58702e-08, global = 1.53956e-09, cumulative = 1.14644e-06
smoothSolver:  Solving for epsilon, Initial residual = 0.0205713, Final residual = 1.17223e-06, No Iterations 1
bounding epsilon, min: -0.349641 max: 2180.89 average: 0.992314
smoothSolver:  Solving for k, Initial residual = 7.91454e-05, Final residual = 2.44509e-06, No Iterations 1
bounding k, min: -1.84773 max: 20.0257 average: 0.638983
ExecutionTime = 0.3 s  ClockTime = 1 s

Time = 0.85

smoothSolver:  Solving for Ux, Initial residual = 0.0525447, Final residual = 2.59662e-06, No Iterations 2
smoothSolver:  Solving for Uy, Initial residual = 0.0128695, Final residual = 1.78369e-07, No Iterations 2
smoothSolver:  Solving for Uz, Initial residual = 0.0170804, Final residual = 2.02919e-07, No Iterations 2
GAMG:  Solving for p, Initial residual = 0.00323339, Final residual = 7.49565e-07, No Iterations 30
time step continuity errors : sum local = 1.07443e-07, global = 5.94245e-09, cumulative = 1.15238e-06
smoothSolver:  Solving for epsilon, Initial residual = 0.008026, Final residual = 1.52393e-06, No Iterations 1
bounding epsilon, min: -2.33128 max: 2180.89 average: 1.30537
smoothSolver:  Solving for k, Initial residual = 9.95597e-05, Final residual = 4.57867e-06, No Iterations 1
bounding k, min: -5.05877 max: 38.9405 average: 0.781955
ExecutionTime = 0.32 s  ClockTime = 1 s

Time = 0.9

smoothSolver:  Solving for Ux, Initial residual = 0.0491787, Final residual = 2.52728e-06, No Iterations 2
smoothSolver:  Solving for Uy, Initial residual = 0.0140335, Final residual = 1.56031e-07, No Iterations 2
smoothSolver:  Solving for Uz, Initial residual = 0.0159154, Final residual = 1.92892e-07, No Iterations 2
GAMG:  Solving for p, Initial residual = 0.0236176, Final residual = 8.45692e-07, No Iterations 35
time step continuity errors : sum local = 1.49875e-08, global = -7.20052e-10, cumulative = 1.15166e-06
smoothSolver:  Solving for epsilon, Initial residual = 0.00308223, Final residual = 2.70695e-06, No Iterations 1
bounding epsilon, min: -1.97175 max: 2180.89 average: 1.8361
smoothSolver:  Solving for k, Initial residual = 0.00016889, Final residual = 8.37316e-07, No Iterations 2
bounding k, min: -15.7789 max: 110.945 average: 1.0358
ExecutionTime = 0.34 s  ClockTime = 1 s

Time = 0.95

smoothSolver:  Solving for Ux, Initial residual = 0.0471799, Final residual = 2.75097e-06, No Iterations 2
smoothSolver:  Solving for Uy, Initial residual = 0.011554, Final residual = 1.59727e-07, No Iterations 2
smoothSolver:  Solving for Uz, Initial residual = 0.0163305, Final residual = 1.97021e-07, No Iterations 2
GAMG:  Solving for p, Initial residual = 0.00848155, Final residual = 8.18574e-07, No Iterations 36
time step continuity errors : sum local = 3.61278e-08, global = 1.55108e-09, cumulative = 1.15321e-06
smoothSolver:  Solving for epsilon, Initial residual = 0.00121483, Final residual = 3.10386e-06, No Iterations 1
bounding epsilon, min: -12.9125 max: 2180.89 average: 2.76665
smoothSolver:  Solving for k, Initial residual = 0.000435893, Final residual = 1.26564e-06, No Iterations 2
bounding k, min: -38.2222 max: 372.788 average: 1.76134
ExecutionTime = 0.36 s  ClockTime = 1 s

Time = 1

smoothSolver:  Solving for Ux, Initial residual = 0.0464967, Final residual = 3.00626e-06, No Iterations 2
smoothSolver:  Solving for Uy, Initial residual = 0.0113966, Final residual = 1.61523e-07, No Iterations 2
smoothSolver:  Solving for Uz, Initial residual = 0.0157991, Final residual = 2.2774e-07, No Iterations 2
GAMG:  Solving for p, Initial residual = 0.00475993, Final residual = 9.83613e-07, No Iterations 23
time step continuity errors : sum local = 7.43009e-08, global = -3.55642e-09, cumulative = 1.14966e-06
smoothSolver:  Solving for epsilon, Initial residual = 0.000554145, Final residual = 5.94303e-06, No Iterations 1
bounding epsilon, min: -3.21207 max: 2180.89 average: 5.13526
smoothSolver:  Solving for k, Initial residual = 0.00101599, Final residual = 4.04462e-06, No Iterations 2
bounding k, min: -4.15254 max: 815.844 average: 3.69911
ExecutionTime = 0.39 s  ClockTime = 1 s

Time = 1.05

smoothSolver:  Solving for Ux, Initial residual = 0.0442573, Final residual = 3.23414e-06, No Iterations 2
smoothSolver:  Solving for Uy, Initial residual = 0.0167171, Final residual = 5.91955e-07, No Iterations 2
smoothSolver:  Solving for Uz, Initial residual = 0.0198382, Final residual = 1.1171e-06, No Iterations 2
GAMG:  Solving for p, Initial residual = 0.0116256, Final residual = 8.97223e-07, No Iterations 38
time step continuity errors : sum local = 2.20138e-08, global = 1.02933e-09, cumulative = 1.15069e-06
smoothSolver:  Solving for epsilon, Initial residual = 0.000340116, Final residual = 4.18759e-07, No Iterations 2
bounding epsilon, min: -17.5424 max: 2180.89 average: 9.78336
smoothSolver:  Solving for k, Initial residual = 0.00128466, Final residual = 8.57587e-06, No Iterations 2
bounding k, min: -12.4369 max: 1114.27 average: 6.40032
ExecutionTime = 0.41 s  ClockTime = 1 s

Time = 1.1

smoothSolver:  Solving for Ux, Initial residual = 0.0420913, Final residual = 3.16373e-06, No Iterations 2
smoothSolver:  Solving for Uy, Initial residual = 0.0146538, Final residual = 2.94195e-07, No Iterations 2
smoothSolver:  Solving for Uz, Initial residual = 0.0136897, Final residual = 1.91189e-07, No Iterations 2
GAMG:  Solving for p, Initial residual = 0.00680541, Final residual = 7.56928e-07, No Iterations 29
time step continuity errors : sum local = 3.84538e-08, global = -1.83342e-09, cumulative = 1.14885e-06
smoothSolver:  Solving for epsilon, Initial residual = 0.000253737, Final residual = 5.21143e-07, No Iterations 2
bounding epsilon, min: -38.731 max: 3339.29 average: 17.6832
smoothSolver:  Solving for k, Initial residual = 0.000702176, Final residual = 3.6095e-06, No Iterations 2
bounding k, min: -108.099 max: 1604.21 average: 10.9445
ExecutionTime = 0.42 s  ClockTime = 1 s

Time = 1.15

smoothSolver:  Solving for Ux, Initial residual = 0.0382195, Final residual = 3.17756e-06, No Iterations 2
smoothSolver:  Solving for Uy, Initial residual = 0.0117122, Final residual = 2.25845e-07, No Iterations 2
smoothSolver:  Solving for Uz, Initial residual = 0.0175498, Final residual = 7.63767e-07, No Iterations 2
GAMG:  Solving for p, Initial residual = 0.0407558, Final residual = 9.49643e-07, No Iterations 42
time step continuity errors : sum local = 5.46437e-09, global = 2.80176e-10, cumulative = 1.14913e-06
smoothSolver:  Solving for epsilon, Initial residual = 0.000663084, Final residual = 6.03417e-06, No Iterations 1
bounding epsilon, min: -24.8363 max: 6360.5 average: 30.5204
smoothSolver:  Solving for k, Initial residual = 0.00144972, Final residual = 1.76143e-06, No Iterations 3
bounding k, min: -26.743 max: 2400.63 average: 18.7609
ExecutionTime = 0.44 s  ClockTime = 1 s

Time = 1.2

smoothSolver:  Solving for Ux, Initial residual = 0.0370008, Final residual = 3.01049e-06, No Iterations 2
smoothSolver:  Solving for Uy, Initial residual = 0.0127357, Final residual = 2.60368e-07, No Iterations 2
smoothSolver:  Solving for Uz, Initial residual = 0.013291, Final residual = 3.34639e-07, No Iterations 2
GAMG:  Solving for p, Initial residual = 0.0368372, Final residual = 9.55706e-07, No Iterations 39
time step continuity errors : sum local = 6.89998e-09, global = -3.0542e-10, cumulative = 1.14883e-06
smoothSolver:  Solving for epsilon, Initial residual = 0.000174274, Final residual = 9.6773e-06, No Iterations 1
bounding epsilon, min: -32.1334 max: 8704.32 average: 49.4664
smoothSolver:  Solving for k, Initial residual = 0.000615638, Final residual = 3.39466e-06, No Iterations 2
bounding k, min: -37.3158 max: 3138.07 average: 28.6051
ExecutionTime = 0.46 s  ClockTime = 1 s

Time = 1.25

smoothSolver:  Solving for Ux, Initial residual = 0.0397457, Final residual = 3.13362e-06, No Iterations 2
smoothSolver:  Solving for Uy, Initial residual = 0.012303, Final residual = 2.63548e-07, No Iterations 2
smoothSolver:  Solving for Uz, Initial residual = 0.0120831, Final residual = 3.48893e-07, No Iterations 2
GAMG:  Solving for p, Initial residual = 0.0120702, Final residual = 8.08854e-07, No Iterations 28
time step continuity errors : sum local = 2.06353e-08, global = 9.70032e-10, cumulative = 1.1498e-06
smoothSolver:  Solving for epsilon, Initial residual = 0.000129158, Final residual = 7.17412e-06, No Iterations 1
bounding epsilon, min: -33.1808 max: 10650.2 average: 76.5679
smoothSolver:  Solving for k, Initial residual = 0.000422846, Final residual = 1.94734e-06, No Iterations 2
bounding k, min: -43.7079 max: 3727.31 average: 38.8626
ExecutionTime = 0.48 s  ClockTime = 1 s

Time = 1.3

smoothSolver:  Solving for Ux, Initial residual = 0.0415249, Final residual = 2.73616e-06, No Iterations 2
smoothSolver:  Solving for Uy, Initial residual = 0.0178567, Final residual = 6.1566e-07, No Iterations 2
smoothSolver:  Solving for Uz, Initial residual = 0.00837047, Final residual = 3.35167e-07, No Iterations 2
GAMG:  Solving for p, Initial residual = 0.194532, Final residual = 9.80578e-07, No Iterations 38
time step continuity errors : sum local = 3.47335e-09, global = -1.90601e-10, cumulative = 1.14961e-06
smoothSolver:  Solving for epsilon, Initial residual = 0.000115918, Final residual = 4.51137e-06, No Iterations 1
bounding epsilon, min: -100.664 max: 12239.3 average: 105.556
smoothSolver:  Solving for k, Initial residual = 0.000352545, Final residual = 1.33802e-06, No Iterations 2
bounding k, min: -52.1283 max: 4186.31 average: 49.0111
ExecutionTime = 0.5 s  ClockTime = 1 s

Time = 1.35

smoothSolver:  Solving for Ux, Initial residual = 0.0336934, Final residual = 2.56806e-06, No Iterations 2
smoothSolver:  Solving for Uy, Initial residual = 0.02172, Final residual = 5.38495e-07, No Iterations 2
smoothSolver:  Solving for Uz, Initial residual = 0.0130022, Final residual = 4.99619e-07, No Iterations 2
GAMG:  Solving for p, Initial residual = 0.44329, Final residual = 9.83237e-07, No Iterations 32
time step continuity errors : sum local = 8.93999e-09, global = 3.60468e-10, cumulative = 1.14997e-06
smoothSolver:  Solving for epsilon, Initial residual = 0.000114732, Final residual = 3.1663e-06, No Iterations 1
bounding epsilon, min: -118.699 max: 13867 average: 130.109
smoothSolver:  Solving for k, Initial residual = 0.000678481, Final residual = 4.81381e-06, No Iterations 2
bounding k, min: -39.0108 max: 4560.64 average: 59.4442
ExecutionTime = 0.52 s  ClockTime = 1 s

Time = 1.4

smoothSolver:  Solving for Ux, Initial residual = 0.0304314, Final residual = 2.40664e-06, No Iterations 2
smoothSolver:  Solving for Uy, Initial residual = 0.0146188, Final residual = 3.72323e-07, No Iterations 2
smoothSolver:  Solving for Uz, Initial residual = 0.0110939, Final residual = 2.34145e-07, No Iterations 2
GAMG:  Solving for p, Initial residual = 0.087759, Final residual = 9.08359e-07, No Iterations 33
time step continuity errors : sum local = 6.12559e-09, global = -3.228e-10, cumulative = 1.14965e-06
smoothSolver:  Solving for epsilon, Initial residual = 4.75902e-05, Final residual = 2.37692e-06, No Iterations 1
bounding epsilon, min: -90.5523 max: 15327 average: 150.644
smoothSolver:  Solving for k, Initial residual = 0.000258902, Final residual = 7.73505e-07, No Iterations 2
bounding k, min: -11.5861 max: 4960.89 average: 69.2139
ExecutionTime = 0.54 s  ClockTime = 1 s

Time = 1.45

smoothSolver:  Solving for Ux, Initial residual = 0.0296971, Final residual = 2.20783e-06, No Iterations 2
smoothSolver:  Solving for Uy, Initial residual = 0.0264351, Final residual = 7.65785e-07, No Iterations 2
smoothSolver:  Solving for Uz, Initial residual = 0.0113625, Final residual = 2.47259e-07, No Iterations 2
GAMG:  Solving for p, Initial residual = 0.0498627, Final residual = 9.06689e-07, No Iterations 27
time step continuity errors : sum local = 2.15556e-08, global = 3.32397e-10, cumulative = 1.14998e-06
smoothSolver:  Solving for epsilon, Initial residual = 4.96091e-05, Final residual = 2.04989e-06, No Iterations 1
bounding epsilon, min: -27.8683 max: 16303.2 average: 167.091
smoothSolver:  Solving for k, Initial residual = 0.000233949, Final residual = 7.46901e-07, No Iterations 2
bounding k, min: -20.4378 max: 5235.76 average: 77.3477
ExecutionTime = 0.56 s  ClockTime = 1 s

Time = 1.5

smoothSolver:  Solving for Ux, Initial residual = 0.0282974, Final residual = 1.98158e-06, No Iterations 2
smoothSolver:  Solving for Uy, Initial residual = 0.0151185, Final residual = 2.56249e-07, No Iterations 2
smoothSolver:  Solving for Uz, Initial residual = 0.0100953, Final residual = 2.06123e-07, No Iterations 2
GAMG:  Solving for p, Initial residual = 0.0989582, Final residual = 7.97845e-07, No Iterations 26
time step continuity errors : sum local = 7.82919e-09, global = -3.34893e-10, cumulative = 1.14964e-06
smoothSolver:  Solving for epsilon, Initial residual = 4.5638e-05, Final residual = 1.43575e-06, No Iterations 1
bounding epsilon, min: -48.4281 max: 17021.7 average: 177.742
smoothSolver:  Solving for k, Initial residual = 0.000172626, Final residual = 7.19106e-06, No Iterations 1
bounding k, min: -46.1134 max: 5419.38 average: 84.0807
ExecutionTime = 0.57 s  ClockTime = 1 s

Time = 1.55

smoothSolver:  Solving for Ux, Initial residual = 0.0282419, Final residual = 1.88402e-06, No Iterations 2
smoothSolver:  Solving for Uy, Initial residual = 0.0110358, Final residual = 2.66107e-07, No Iterations 2
smoothSolver:  Solving for Uz, Initial residual = 0.0100437, Final residual = 2.7774e-07, No Iterations 2
GAMG:  Solving for p, Initial residual = 0.0472112, Final residual = 8.00691e-07, No Iterations 21
time step continuity errors : sum local = 8.99483e-09, global = 3.94563e-10, cumulative = 1.15004e-06
smoothSolver:  Solving for epsilon, Initial residual = 5.68204e-05, Final residual = 1.12848e-06, No Iterations 1
bounding epsilon, min: -66.0097 max: 17490.1 average: 183.641
smoothSolver:  Solving for k, Initial residual = 0.000347615, Final residual = 2.61162e-06, No Iterations 2
bounding k, min: -40.3318 max: 5561.23 average: 90.0149
ExecutionTime = 0.59 s  ClockTime = 1 s

Time = 1.6

smoothSolver:  Solving for Ux, Initial residual = 0.0238571, Final residual = 1.53409e-06, No Iterations 2
smoothSolver:  Solving for Uy, Initial residual = 0.0108451, Final residual = 2.19873e-07, No Iterations 2
smoothSolver:  Solving for Uz, Initial residual = 0.0093582, Final residual = 1.95468e-07, No Iterations 2
GAMG:  Solving for p, Initial residual = 0.0228407, Final residual = 8.9242e-07, No Iterations 26
time step continuity errors : sum local = 1.27478e-08, global = 1.50384e-10, cumulative = 1.15019e-06
smoothSolver:  Solving for epsilon, Initial residual = 3.14776e-05, Final residual = 8.22122e-07, No Iterations 1
bounding epsilon, min: -29.653 max: 17732.3 average: 187.77
smoothSolver:  Solving for k, Initial residual = 0.000108271, Final residual = 3.90997e-06, No Iterations 1
bounding k, min: -42.8887 max: 5641.71 average: 94.9042
ExecutionTime = 0.6 s  ClockTime = 1 s

Time = 1.65

smoothSolver:  Solving for Ux, Initial residual = 0.0233319, Final residual = 1.42437e-06, No Iterations 2
smoothSolver:  Solving for Uy, Initial residual = 0.00953409, Final residual = 1.92906e-07, No Iterations 2
smoothSolver:  Solving for Uz, Initial residual = 0.0089445, Final residual = 1.94154e-07, No Iterations 2
GAMG:  Solving for p, Initial residual = 0.0248867, Final residual = 9.89665e-07, No Iterations 18
time step continuity errors : sum local = 8.27428e-09, global = 4.50432e-11, cumulative = 1.15023e-06
smoothSolver:  Solving for epsilon, Initial residual = 0.000155489, Final residual = 5.20584e-07, No Iterations 1
bounding epsilon, min: -146.055 max: 17768.1 average: 189.342
smoothSolver:  Solving for k, Initial residual = 6.03409e-05, Final residual = 2.01365e-06, No Iterations 1
bounding k, min: -50.3766 max: 5674.7 average: 98.655
ExecutionTime = 0.62 s  ClockTime = 1 s

Time = 1.7

smoothSolver:  Solving for Ux, Initial residual = 0.0219724, Final residual = 1.38321e-06, No Iterations 2
smoothSolver:  Solving for Uy, Initial residual = 0.00911236, Final residual = 2.76243e-07, No Iterations 2
smoothSolver:  Solving for Uz, Initial residual = 0.009238, Final residual = 3.31209e-07, No Iterations 2
GAMG:  Solving for p, Initial residual = 0.0566471, Final residual = 8.03426e-07, No Iterations 32
time step continuity errors : sum local = 2.3283e-09, global = -1.12631e-10, cumulative = 1.15012e-06
smoothSolver:  Solving for epsilon, Initial residual = 7.83291e-05, Final residual = 3.09198e-07, No Iterations 1
bounding epsilon, min: -165.72 max: 17603 average: 188.251
smoothSolver:  Solving for k, Initial residual = 9.76948e-05, Final residual = 4.39975e-06, No Iterations 1
bounding k, min: -49.4087 max: 5662.77 average: 101.964
ExecutionTime = 0.64 s  ClockTime = 1 s

Time = 1.75

smoothSolver:  Solving for Ux, Initial residual = 0.0251255, Final residual = 1.36614e-06, No Iterations 2
smoothSolver:  Solving for Uy, Initial residual = 0.00975948, Final residual = 2.71654e-07, No Iterations 2
smoothSolver:  Solving for Uz, Initial residual = 0.0087143, Final residual = 1.86513e-07, No Iterations 2
GAMG:  Solving for p, Initial residual = 0.0195684, Final residual = 9.88773e-07, No Iterations 15
time step continuity errors : sum local = 9.93933e-09, global = 1.87239e-09, cumulative = 1.15199e-06
smoothSolver:  Solving for epsilon, Initial residual = 3.47026e-05, Final residual = 4.61696e-07, No Iterations 1
bounding epsilon, min: -137.647 max: 17279.4 average: 186.105
smoothSolver:  Solving for k, Initial residual = 6.2135e-05, Final residual = 2.93833e-06, No Iterations 1
bounding k, min: -48.0536 max: 5622.58 average: 105.032
ExecutionTime = 0.65 s  ClockTime = 1 s

Time = 1.8

smoothSolver:  Solving for Ux, Initial residual = 0.0224052, Final residual = 1.21341e-06, No Iterations 2
smoothSolver:  Solving for Uy, Initial residual = 0.00970041, Final residual = 2.01132e-07, No Iterations 2
smoothSolver:  Solving for Uz, Initial residual = 0.00878426, Final residual = 1.89016e-07, No Iterations 2
GAMG:  Solving for p, Initial residual = 0.0221226, Final residual = 7.11426e-07, No Iterations 18
time step continuity errors : sum local = 6.99047e-09, global = 5.87875e-11, cumulative = 1.15205e-06
smoothSolver:  Solving for epsilon, Initial residual = 2.15225e-05, Final residual = 2.57398e-07, No Iterations 1
bounding epsilon, min: -134.272 max: 16836 average: 183.999
smoothSolver:  Solving for k, Initial residual = 1.12816e-05, Final residual = 3.74575e-07, No Iterations 1
bounding k, min: -36.0836 max: 5557.6 average: 107.392
ExecutionTime = 0.67 s  ClockTime = 1 s

Time = 1.85

smoothSolver:  Solving for Ux, Initial residual = 0.0225948, Final residual = 1.07951e-06, No Iterations 2
smoothSolver:  Solving for Uy, Initial residual = 0.00868986, Final residual = 1.77364e-07, No Iterations 2
smoothSolver:  Solving for Uz, Initial residual = 0.00868466, Final residual = 1.86734e-07, No Iterations 2
GAMG:  Solving for p, Initial residual = 0.0551947, Final residual = 9.66197e-07, No Iterations 16
time step continuity errors : sum local = 2.79116e-09, global = -2.48771e-10, cumulative = 1.1518e-06
smoothSolver:  Solving for epsilon, Initial residual = 5.34318e-05, Final residual = 1.13573e-07, No Iterations 1
bounding epsilon, min: -132.016 max: 16305 average: 180.894
smoothSolver:  Solving for k, Initial residual = 9.01576e-06, Final residual = 9.01576e-06, No Iterations 0
ExecutionTime = 0.68 s  ClockTime = 1 s

Time = 1.9

smoothSolver:  Solving for Ux, Initial residual = 0.0223366, Final residual = 9.2811e-07, No Iterations 2
smoothSolver:  Solving for Uy, Initial residual = 0.00785667, Final residual = 1.55844e-07, No Iterations 2
smoothSolver:  Solving for Uz, Initial residual = 0.0086027, Final residual = 1.77795e-07, No Iterations 2
GAMG:  Solving for p, Initial residual = 0.0140618, Final residual = 9.51549e-07, No Iterations 17
time step continuity errors : sum local = 7.52448e-09, global = -2.22903e-10, cumulative = 1.15158e-06
smoothSolver:  Solving for epsilon, Initial residual = 2.62728e-05, Final residual = 1.95553e-07, No Iterations 1
bounding epsilon, min: -72.2986 max: 15832.3 average: 177.431
smoothSolver:  Solving for k, Initial residual = 1.74447e-05, Final residual = 6.98161e-07, No Iterations 1
bounding k, min: -41.4503 max: 5457.02 average: 109.324
ExecutionTime = 0.7 s  ClockTime = 1 s

Time = 1.95

smoothSolver:  Solving for Ux, Initial residual = 0.0219871, Final residual = 8.9873e-07, No Iterations 2
smoothSolver:  Solving for Uy, Initial residual = 0.00755075, Final residual = 1.50973e-07, No Iterations 2
smoothSolver:  Solving for Uz, Initial residual = 0.00845281, Final residual = 1.81021e-07, No Iterations 2
GAMG:  Solving for p, Initial residual = 0.00977798, Final residual = 9.95621e-07, No Iterations 14
time step continuity errors : sum local = 8.40179e-09, global = 1.72745e-10, cumulative = 1.15175e-06
smoothSolver:  Solving for epsilon, Initial residual = 6.63722e-06, Final residual = 6.63722e-06, No Iterations 0
smoothSolver:  Solving for k, Initial residual = 1.36209e-05, Final residual = 6.01938e-07, No Iterations 1
bounding k, min: -70.1312 max: 5366.96 average: 111.549
ExecutionTime = 0.71 s  ClockTime = 1 s

Time = 2

smoothSolver:  Solving for Ux, Initial residual = 0.0212879, Final residual = 1.24688e-06, No Iterations 2
smoothSolver:  Solving for Uy, Initial residual = 0.0206582, Final residual = 8.1278e-07, No Iterations 2
smoothSolver:  Solving for Uz, Initial residual = 0.00413442, Final residual = 2.36957e-07, No Iterations 2
GAMG:  Solving for p, Initial residual = 0.0207895, Final residual = 8.2025e-07, No Iterations 18
time step continuity errors : sum local = 7.72985e-09, global = -4.04861e-11, cumulative = 1.15171e-06
smoothSolver:  Solving for epsilon, Initial residual = 1.37199e-05, Final residual = 5.18643e-07, No Iterations 1
bounding epsilon, min: -102.284 max: 15205.3 average: 170.822
smoothSolver:  Solving for k, Initial residual = 5.06033e-07, Final residual = 5.06033e-07, No Iterations 0
ExecutionTime = 0.73 s  ClockTime = 1 s

Time = 2.05

smoothSolver:  Solving for Ux, Initial residual = 0.0211031, Final residual = 7.39984e-07, No Iterations 2
smoothSolver:  Solving for Uy, Initial residual = 0.0140916, Final residual = 2.09144e-07, No Iterations 2
smoothSolver:  Solving for Uz, Initial residual = 0.00907416, Final residual = 1.81358e-07, No Iterations 2
GAMG:  Solving for p, Initial residual = 0.311178, Final residual = 8.37186e-07, No Iterations 23
time step continuity errors : sum local = 5.1637e-09, global = -1.22488e-10, cumulative = 1.15159e-06
smoothSolver:  Solving for epsilon, Initial residual = 3.83003e-06, Final residual = 3.83003e-06, No Iterations 0
smoothSolver:  Solving for k, Initial residual = 5.1695e-08, Final residual = 5.1695e-08, No Iterations 0
ExecutionTime = 0.75 s  ClockTime = 1 s

Time = 2.1

smoothSolver:  Solving for Ux, Initial residual = 0.0210236, Final residual = 6.70966e-07, No Iterations 2
smoothSolver:  Solving for Uy, Initial residual = 0.00863231, Final residual = 1.6924e-07, No Iterations 2
smoothSolver:  Solving for Uz, Initial residual = 0.00791721, Final residual = 1.79302e-07, No Iterations 2
GAMG:  Solving for p, Initial residual = 0.0683795, Final residual = 8.81088e-07, No Iterations 18
time step continuity errors : sum local = 8.60649e-09, global = 1.3137e-10, cumulative = 1.15172e-06
smoothSolver:  Solving for epsilon, Initial residual = 3.83229e-06, Final residual = 3.83229e-06, No Iterations 0
smoothSolver:  Solving for k, Initial residual = 5.43066e-08, Final residual = 5.43066e-08, No Iterations 0
ExecutionTime = 0.77 s  ClockTime = 1 s

Time = 2.15

smoothSolver:  Solving for Ux, Initial residual = 0.020959, Final residual = 6.12126e-07, No Iterations 2
smoothSolver:  Solving for Uy, Initial residual = 0.00698549, Final residual = 1.33196e-07, No Iterations 2
smoothSolver:  Solving for Uz, Initial residual = 0.00765022, Final residual = 1.7052e-07, No Iterations 2
GAMG:  Solving for p, Initial residual = 0.018642, Final residual = 9.41582e-07, No Iterations 12
time step continuity errors : sum local = 1.26337e-08, global = -1.3143e-10, cumulative = 1.15159e-06
smoothSolver:  Solving for epsilon, Initial residual = 3.83445e-06, Final residual = 3.83445e-06, No Iterations 0
smoothSolver:  Solving for k, Initial residual = 5.6905e-08, Final residual = 5.6905e-08, No Iterations 0
ExecutionTime = 0.78 s  ClockTime = 1 s

Time = 2.2

smoothSolver:  Solving for Ux, Initial residual = 0.0208065, Final residual = 5.57753e-07, No Iterations 2
smoothSolver:  Solving for Uy, Initial residual = 0.00676169, Final residual = 1.27827e-07, No Iterations 2
smoothSolver:  Solving for Uz, Initial residual = 0.00757704, Final residual = 1.73539e-07, No Iterations 2
GAMG:  Solving for p, Initial residual = 0.0100756, Final residual = 9.54425e-07, No Iterations 14
time step continuity errors : sum local = 1.2125e-08, global = -4.22586e-10, cumulative = 1.15117e-06
smoothSolver:  Solving for epsilon, Initial residual = 3.83655e-06, Final residual = 3.83655e-06, No Iterations 0
smoothSolver:  Solving for k, Initial residual = 5.95776e-08, Final residual = 5.95776e-08, No Iterations 0
ExecutionTime = 0.79 s  ClockTime = 1 s

Time = 2.25

smoothSolver:  Solving for Ux, Initial residual = 0.0205913, Final residual = 5.14624e-07, No Iterations 2
smoothSolver:  Solving for Uy, Initial residual = 0.00648944, Final residual = 1.2508e-07, No Iterations 2
smoothSolver:  Solving for Uz, Initial residual = 0.00752627, Final residual = 1.71305e-07, No Iterations 2
GAMG:  Solving for p, Initial residual = 0.00782578, Final residual = 9.60666e-07, No Iterations 13
time step continuity errors : sum local = 1.27965e-08, global = -7.49105e-10, cumulative = 1.15042e-06
smoothSolver:  Solving for epsilon, Initial residual = 3.83857e-06, Final residual = 3.83857e-06, No Iterations 0
smoothSolver:  Solving for k, Initial residual = 6.21536e-08, Final residual = 6.21536e-08, No Iterations 0
ExecutionTime = 0.81 s  ClockTime = 1 s

Time = 2.3

smoothSolver:  Solving for Ux, Initial residual = 0.0203119, Final residual = 4.90969e-07, No Iterations 2
smoothSolver:  Solving for Uy, Initial residual = 0.00635607, Final residual = 1.23956e-07, No Iterations 2
smoothSolver:  Solving for Uz, Initial residual = 0.00750833, Final residual = 1.70742e-07, No Iterations 2
GAMG:  Solving for p, Initial residual = 0.0063255, Final residual = 8.52818e-07, No Iterations 14
time step continuity errors : sum local = 1.18023e-08, global = -2.50512e-10, cumulative = 1.15017e-06
smoothSolver:  Solving for epsilon, Initial residual = 3.8405e-06, Final residual = 3.8405e-06, No Iterations 0
smoothSolver:  Solving for k, Initial residual = 6.46009e-08, Final residual = 6.46009e-08, No Iterations 0
ExecutionTime = 0.82 s  ClockTime = 1 s

Time = 2.35

smoothSolver:  Solving for Ux, Initial residual = 0.0200601, Final residual = 4.62623e-07, No Iterations 2
smoothSolver:  Solving for Uy, Initial residual = 0.00626168, Final residual = 1.20664e-07, No Iterations 2
smoothSolver:  Solving for Uz, Initial residual = 0.00748181, Final residual = 1.69516e-07, No Iterations 2
GAMG:  Solving for p, Initial residual = 0.00540947, Final residual = 8.77003e-07, No Iterations 14
time step continuity errors : sum local = 1.23534e-08, global = -2.38851e-10, cumulative = 1.14993e-06
smoothSolver:  Solving for epsilon, Initial residual = 3.84236e-06, Final residual = 3.84236e-06, No Iterations 0
smoothSolver:  Solving for k, Initial residual = 6.7036e-08, Final residual = 6.7036e-08, No Iterations 0
ExecutionTime = 0.83 s  ClockTime = 1 s

Time = 2.4

smoothSolver:  Solving for Ux, Initial residual = 0.0199148, Final residual = 4.37633e-07, No Iterations 2
smoothSolver:  Solving for Uy, Initial residual = 0.0061902, Final residual = 1.17245e-07, No Iterations 2
smoothSolver:  Solving for Uz, Initial residual = 0.00745663, Final residual = 1.68881e-07, No Iterations 2
GAMG:  Solving for p, Initial residual = 0.00485739, Final residual = 8.90815e-07, No Iterations 14
time step continuity errors : sum local = 1.26825e-08, global = -1.93841e-10, cumulative = 1.14973e-06
smoothSolver:  Solving for epsilon, Initial residual = 3.84412e-06, Final residual = 3.84412e-06, No Iterations 0
smoothSolver:  Solving for k, Initial residual = 6.93886e-08, Final residual = 6.93886e-08, No Iterations 0
ExecutionTime = 0.85 s  ClockTime = 1 s

Time = 2.45

smoothSolver:  Solving for Ux, Initial residual = 0.0195072, Final residual = 4.15545e-07, No Iterations 2
smoothSolver:  Solving for Uy, Initial residual = 0.00612242, Final residual = 1.13404e-07, No Iterations 2
smoothSolver:  Solving for Uz, Initial residual = 0.00745521, Final residual = 1.67476e-07, No Iterations 2
GAMG:  Solving for p, Initial residual = 0.00445551, Final residual = 8.03577e-07, No Iterations 14
time step continuity errors : sum local = 1.16409e-08, global = -1.94353e-10, cumulative = 1.14954e-06
smoothSolver:  Solving for epsilon, Initial residual = 3.8458e-06, Final residual = 3.8458e-06, No Iterations 0
smoothSolver:  Solving for k, Initial residual = 7.16386e-08, Final residual = 7.16386e-08, No Iterations 0
ExecutionTime = 0.86 s  ClockTime = 1 s

Time = 2.5

smoothSolver:  Solving for Ux, Initial residual = 0.0192846, Final residual = 4.22215e-07, No Iterations 2
smoothSolver:  Solving for Uy, Initial residual = 0.00607425, Final residual = 1.09756e-07, No Iterations 2
smoothSolver:  Solving for Uz, Initial residual = 0.00744351, Final residual = 1.65921e-07, No Iterations 2
GAMG:  Solving for p, Initial residual = 0.00406017, Final residual = 9.7922e-07, No Iterations 12
time step continuity errors : sum local = 1.44373e-08, global = -4.50113e-10, cumulative = 1.14909e-06
smoothSolver:  Solving for epsilon, Initial residual = 3.84739e-06, Final residual = 3.84739e-06, No Iterations 0
smoothSolver:  Solving for k, Initial residual = 7.37564e-08, Final residual = 7.37564e-08, No Iterations 0
ExecutionTime = 0.87 s  ClockTime = 1 s

Time = 2.55

smoothSolver:  Solving for Ux, Initial residual = 0.0191195, Final residual = 4.11636e-07, No Iterations 2
smoothSolver:  Solving for Uy, Initial residual = 0.00603056, Final residual = 1.06353e-07, No Iterations 2
smoothSolver:  Solving for Uz, Initial residual = 0.00740545, Final residual = 1.64403e-07, No Iterations 2
GAMG:  Solving for p, Initial residual = 0.00367511, Final residual = 9.63806e-07, No Iterations 12
time step continuity errors : sum local = 1.45177e-08, global = -4.37642e-10, cumulative = 1.14865e-06
smoothSolver:  Solving for epsilon, Initial residual = 3.8489e-06, Final residual = 3.8489e-06, No Iterations 0
smoothSolver:  Solving for k, Initial residual = 7.58285e-08, Final residual = 7.58285e-08, No Iterations 0
ExecutionTime = 0.89 s  ClockTime = 1 s

Time = 2.6

smoothSolver:  Solving for Ux, Initial residual = 0.0190393, Final residual = 4.03923e-07, No Iterations 2
smoothSolver:  Solving for Uy, Initial residual = 0.00598153, Final residual = 1.03262e-07, No Iterations 2
smoothSolver:  Solving for Uz, Initial residual = 0.00734594, Final residual = 1.62802e-07, No Iterations 2
GAMG:  Solving for p, Initial residual = 0.00346048, Final residual = 8.90678e-07, No Iterations 12
time step continuity errors : sum local = 1.37075e-08, global = -4.08677e-10, cumulative = 1.14824e-06
smoothSolver:  Solving for epsilon, Initial residual = 3.85033e-06, Final residual = 3.85033e-06, No Iterations 0
smoothSolver:  Solving for k, Initial residual = 7.7799e-08, Final residual = 7.7799e-08, No Iterations 0
ExecutionTime = 0.9 s  ClockTime = 1 s

Time = 2.65

smoothSolver:  Solving for Ux, Initial residual = 0.0189059, Final residual = 4.16304e-07, No Iterations 2
smoothSolver:  Solving for Uy, Initial residual = 0.00592617, Final residual = 1.00185e-07, No Iterations 2
smoothSolver:  Solving for Uz, Initial residual = 0.00726575, Final residual = 1.61038e-07, No Iterations 2
GAMG:  Solving for p, Initial residual = 0.00347797, Final residual = 8.85108e-07, No Iterations 12
time step continuity errors : sum local = 1.40662e-08, global = -4.39364e-10, cumulative = 1.1478e-06
smoothSolver:  Solving for epsilon, Initial residual = 3.85169e-06, Final residual = 3.85169e-06, No Iterations 0
smoothSolver:  Solving for k, Initial residual = 7.96049e-08, Final residual = 7.96049e-08, No Iterations 0
ExecutionTime = 0.91 s  ClockTime = 1 s

Time = 2.7

smoothSolver:  Solving for Ux, Initial residual = 0.0186402, Final residual = 4.037e-07, No Iterations 2
smoothSolver:  Solving for Uy, Initial residual = 0.00587846, Final residual = 9.71794e-08, No Iterations 2
smoothSolver:  Solving for Uz, Initial residual = 0.0072208, Final residual = 1.5926e-07, No Iterations 2
GAMG:  Solving for p, Initial residual = 0.0032824, Final residual = 8.93119e-07, No Iterations 12
time step continuity errors : sum local = 1.40261e-08, global = -3.49858e-10, cumulative = 1.14745e-06
smoothSolver:  Solving for epsilon, Initial residual = 3.85297e-06, Final residual = 3.85297e-06, No Iterations 0
smoothSolver:  Solving for k, Initial residual = 8.13739e-08, Final residual = 8.13739e-08, No Iterations 0
ExecutionTime = 0.93 s  ClockTime = 1 s

Time = 2.75

smoothSolver:  Solving for Ux, Initial residual = 0.0184797, Final residual = 4.04344e-07, No Iterations 2
smoothSolver:  Solving for Uy, Initial residual = 0.00586889, Final residual = 9.46439e-08, No Iterations 2
smoothSolver:  Solving for Uz, Initial residual = 0.007202, Final residual = 1.57263e-07, No Iterations 2
GAMG:  Solving for p, Initial residual = 0.00362783, Final residual = 8.88473e-07, No Iterations 12
time step continuity errors : sum local = 1.39444e-08, global = -2.88453e-10, cumulative = 1.14717e-06
smoothSolver:  Solving for epsilon, Initial residual = 3.85418e-06, Final residual = 3.85418e-06, No Iterations 0
smoothSolver:  Solving for k, Initial residual = 8.31493e-08, Final residual = 8.31493e-08, No Iterations 0
ExecutionTime = 0.94 s  ClockTime = 1 s

Time = 2.8

smoothSolver:  Solving for Ux, Initial residual = 0.0182141, Final residual = 3.90839e-07, No Iterations 2
smoothSolver:  Solving for Uy, Initial residual = 0.00586161, Final residual = 9.25008e-08, No Iterations 2
smoothSolver:  Solving for Uz, Initial residual = 0.00718732, Final residual = 1.55346e-07, No Iterations 2
GAMG:  Solving for p, Initial residual = 0.00385605, Final residual = 9.70035e-07, No Iterations 11
time step continuity errors : sum local = 1.53359e-08, global = -6.56309e-10, cumulative = 1.14651e-06
smoothSolver:  Solving for epsilon, Initial residual = 3.85532e-06, Final residual = 3.85532e-06, No Iterations 0
smoothSolver:  Solving for k, Initial residual = 8.48266e-08, Final residual = 8.48266e-08, No Iterations 0
ExecutionTime = 0.95 s  ClockTime = 1 s

Time = 2.85

smoothSolver:  Solving for Ux, Initial residual = 0.0179365, Final residual = 3.90225e-07, No Iterations 2
smoothSolver:  Solving for Uy, Initial residual = 0.00585534, Final residual = 9.09687e-08, No Iterations 2
smoothSolver:  Solving for Uz, Initial residual = 0.0071753, Final residual = 1.53893e-07, No Iterations 2
GAMG:  Solving for p, Initial residual = 0.00361696, Final residual = 8.73437e-07, No Iterations 11
time step continuity errors : sum local = 1.36667e-08, global = -3.15975e-10, cumulative = 1.14619e-06
smoothSolver:  Solving for epsilon, Initial residual = 3.8564e-06, Final residual = 3.8564e-06, No Iterations 0
smoothSolver:  Solving for k, Initial residual = 8.63491e-08, Final residual = 8.63491e-08, No Iterations 0
ExecutionTime = 0.96 s  ClockTime = 1 s

Time = 2.9

smoothSolver:  Solving for Ux, Initial residual = 0.0175833, Final residual = 3.7993e-07, No Iterations 2
smoothSolver:  Solving for Uy, Initial residual = 0.00585346, Final residual = 8.96909e-08, No Iterations 2
smoothSolver:  Solving for Uz, Initial residual = 0.00715856, Final residual = 1.51863e-07, No Iterations 2
GAMG:  Solving for p, Initial residual = 0.00328688, Final residual = 9.70184e-07, No Iterations 10
time step continuity errors : sum local = 1.50664e-08, global = -1.70635e-10, cumulative = 1.14602e-06
smoothSolver:  Solving for epsilon, Initial residual = 3.85741e-06, Final residual = 3.85741e-06, No Iterations 0
smoothSolver:  Solving for k, Initial residual = 8.77477e-08, Final residual = 8.77477e-08, No Iterations 0
ExecutionTime = 0.98 s  ClockTime = 1 s

Time = 2.95

smoothSolver:  Solving for Ux, Initial residual = 0.0172258, Final residual = 3.76767e-07, No Iterations 2
smoothSolver:  Solving for Uy, Initial residual = 0.00585101, Final residual = 8.84976e-08, No Iterations 2
smoothSolver:  Solving for Uz, Initial residual = 0.00713061, Final residual = 1.49419e-07, No Iterations 2
GAMG:  Solving for p, Initial residual = 0.00318939, Final residual = 9.83832e-07, No Iterations 10
time step continuity errors : sum local = 1.52015e-08, global = -2.08765e-10, cumulative = 1.14581e-06
smoothSolver:  Solving for epsilon, Initial residual = 3.85836e-06, Final residual = 3.85836e-06, No Iterations 0
smoothSolver:  Solving for k, Initial residual = 8.91845e-08, Final residual = 8.91845e-08, No Iterations 0
ExecutionTime = 0.99 s  ClockTime = 1 s

Time = 3

smoothSolver:  Solving for Ux, Initial residual = 0.0169331, Final residual = 3.75599e-07, No Iterations 2
smoothSolver:  Solving for Uy, Initial residual = 0.0058587, Final residual = 8.83048e-08, No Iterations 2
smoothSolver:  Solving for Uz, Initial residual = 0.00709668, Final residual = 1.46817e-07, No Iterations 2
GAMG:  Solving for p, Initial residual = 0.00316853, Final residual = 7.94906e-07, No Iterations 11
time step continuity errors : sum local = 1.22806e-08, global = -1.74568e-10, cumulative = 1.14564e-06
smoothSolver:  Solving for epsilon, Initial residual = 3.85925e-06, Final residual = 3.85925e-06, No Iterations 0
smoothSolver:  Solving for k, Initial residual = 9.05616e-08, Final residual = 9.05616e-08, No Iterations 0
ExecutionTime = 1.01 s  ClockTime = 1 s

Time = 3.05

smoothSolver:  Solving for Ux, Initial residual = 0.016634, Final residual = 3.5447e-07, No Iterations 2
smoothSolver:  Solving for Uy, Initial residual = 0.00584437, Final residual = 8.83915e-08, No Iterations 2
smoothSolver:  Solving for Uz, Initial residual = 0.00705954, Final residual = 1.44602e-07, No Iterations 2
GAMG:  Solving for p, Initial residual = 0.00334392, Final residual = 8.75023e-07, No Iterations 9
time step continuity errors : sum local = 1.35238e-08, global = -8.12036e-10, cumulative = 1.14483e-06
smoothSolver:  Solving for epsilon, Initial residual = 3.86009e-06, Final residual = 3.86009e-06, No Iterations 0
smoothSolver:  Solving for k, Initial residual = 9.18036e-08, Final residual = 9.18036e-08, No Iterations 0
ExecutionTime = 1.02 s  ClockTime = 1 s

Time = 3.1

smoothSolver:  Solving for Ux, Initial residual = 0.0164073, Final residual = 3.5284e-07, No Iterations 2
smoothSolver:  Solving for Uy, Initial residual = 0.00581541, Final residual = 8.85947e-08, No Iterations 2
smoothSolver:  Solving for Uz, Initial residual = 0.00701622, Final residual = 1.42181e-07, No Iterations 2
GAMG:  Solving for p, Initial residual = 0.00319232, Final residual = 8.81008e-07, No Iterations 11
time step continuity errors : sum local = 1.36793e-08, global = -3.33121e-10, cumulative = 1.14449e-06
smoothSolver:  Solving for epsilon, Initial residual = 3.86087e-06, Final residual = 3.86087e-06, No Iterations 0
smoothSolver:  Solving for k, Initial residual = 9.29093e-08, Final residual = 9.29093e-08, No Iterations 0
ExecutionTime = 1.04 s  ClockTime = 2 s

Time = 3.15

smoothSolver:  Solving for Ux, Initial residual = 0.016139, Final residual = 3.38404e-07, No Iterations 2
smoothSolver:  Solving for Uy, Initial residual = 0.00578058, Final residual = 8.88613e-08, No Iterations 2
smoothSolver:  Solving for Uz, Initial residual = 0.00700931, Final residual = 1.39607e-07, No Iterations 2
GAMG:  Solving for p, Initial residual = 0.00318422, Final residual = 9.56356e-07, No Iterations 13
time step continuity errors : sum local = 1.48223e-08, global = -2.52326e-10, cumulative = 1.14424e-06
smoothSolver:  Solving for epsilon, Initial residual = 3.86159e-06, Final residual = 3.86159e-06, No Iterations 0
smoothSolver:  Solving for k, Initial residual = 9.39127e-08, Final residual = 9.39127e-08, No Iterations 0
ExecutionTime = 1.05 s  ClockTime = 2 s

Time = 3.2

smoothSolver:  Solving for Ux, Initial residual = 0.0159406, Final residual = 3.24981e-07, No Iterations 2
smoothSolver:  Solving for Uy, Initial residual = 0.00575276, Final residual = 8.92714e-08, No Iterations 2
smoothSolver:  Solving for Uz, Initial residual = 0.00702122, Final residual = 1.37414e-07, No Iterations 2
GAMG:  Solving for p, Initial residual = 0.00314199, Final residual = 9.57173e-07, No Iterations 13
time step continuity errors : sum local = 1.45505e-08, global = -2.80608e-10, cumulative = 1.14396e-06
smoothSolver:  Solving for epsilon, Initial residual = 3.86227e-06, Final residual = 3.86227e-06, No Iterations 0
smoothSolver:  Solving for k, Initial residual = 9.48088e-08, Final residual = 9.48088e-08, No Iterations 0
ExecutionTime = 1.06 s  ClockTime = 2 s

Time = 3.25

smoothSolver:  Solving for Ux, Initial residual = 0.0158084, Final residual = 3.17961e-07, No Iterations 2
smoothSolver:  Solving for Uy, Initial residual = 0.0057401, Final residual = 8.98114e-08, No Iterations 2
smoothSolver:  Solving for Uz, Initial residual = 0.0070181, Final residual = 1.35919e-07, No Iterations 2
GAMG:  Solving for p, Initial residual = 0.00315034, Final residual = 8.32114e-07, No Iterations 13
time step continuity errors : sum local = 1.24489e-08, global = -3.00213e-10, cumulative = 1.14366e-06
smoothSolver:  Solving for epsilon, Initial residual = 3.86291e-06, Final residual = 3.86291e-06, No Iterations 0
smoothSolver:  Solving for k, Initial residual = 9.55864e-08, Final residual = 9.55864e-08, No Iterations 0
ExecutionTime = 1.07 s  ClockTime = 2 s

Time = 3.3

smoothSolver:  Solving for Ux, Initial residual = 0.0155738, Final residual = 2.97791e-07, No Iterations 2
smoothSolver:  Solving for Uy, Initial residual = 0.00573711, Final residual = 9.06008e-08, No Iterations 2
smoothSolver:  Solving for Uz, Initial residual = 0.00698798, Final residual = 1.35235e-07, No Iterations 2
GAMG:  Solving for p, Initial residual = 0.00311456, Final residual = 7.79202e-07, No Iterations 11
time step continuity errors : sum local = 1.15402e-08, global = -3.90072e-10, cumulative = 1.14327e-06
smoothSolver:  Solving for epsilon, Initial residual = 3.8635e-06, Final residual = 3.8635e-06, No Iterations 0
smoothSolver:  Solving for k, Initial residual = 9.62965e-08, Final residual = 9.62965e-08, No Iterations 0
ExecutionTime = 1.09 s  ClockTime = 2 s

Time = 3.35

smoothSolver:  Solving for Ux, Initial residual = 0.0154327, Final residual = 2.96286e-07, No Iterations 2
smoothSolver:  Solving for Uy, Initial residual = 0.00574465, Final residual = 9.15594e-08, No Iterations 2
smoothSolver:  Solving for Uz, Initial residual = 0.00694975, Final residual = 1.34352e-07, No Iterations 2
GAMG:  Solving for p, Initial residual = 0.00305545, Final residual = 6.94483e-07, No Iterations 11
time step continuity errors : sum local = 1.01517e-08, global = -3.82702e-10, cumulative = 1.14289e-06
smoothSolver:  Solving for epsilon, Initial residual = 3.86406e-06, Final residual = 3.86406e-06, No Iterations 0
smoothSolver:  Solving for k, Initial residual = 9.69498e-08, Final residual = 9.69498e-08, No Iterations 0
ExecutionTime = 1.1 s  ClockTime = 2 s

Time = 3.4

smoothSolver:  Solving for Ux, Initial residual = 0.0151817, Final residual = 2.9632e-07, No Iterations 2
smoothSolver:  Solving for Uy, Initial residual = 0.00577355, Final residual = 9.26859e-08, No Iterations 2
smoothSolver:  Solving for Uz, Initial residual = 0.00688693, Final residual = 1.33301e-07, No Iterations 2
GAMG:  Solving for p, Initial residual = 0.00306629, Final residual = 9.93756e-07, No Iterations 9
time step continuity errors : sum local = 1.43319e-08, global = -7.17336e-10, cumulative = 1.14217e-06
smoothSolver:  Solving for epsilon, Initial residual = 3.86458e-06, Final residual = 3.86458e-06, No Iterations 0
smoothSolver:  Solving for k, Initial residual = 9.75929e-08, Final residual = 9.75929e-08, No Iterations 0
ExecutionTime = 1.11 s  ClockTime = 2 s

Time = 3.45

smoothSolver:  Solving for Ux, Initial residual = 0.014845, Final residual = 2.74523e-07, No Iterations 2
smoothSolver:  Solving for Uy, Initial residual = 0.00580277, Final residual = 9.35401e-08, No Iterations 2
smoothSolver:  Solving for Uz, Initial residual = 0.00683326, Final residual = 1.31798e-07, No Iterations 2
GAMG:  Solving for p, Initial residual = 0.00305392, Final residual = 8.17487e-07, No Iterations 11
time step continuity errors : sum local = 1.1683e-08, global = -4.49508e-10, cumulative = 1.14172e-06
smoothSolver:  Solving for epsilon, Initial residual = 3.86507e-06, Final residual = 3.86507e-06, No Iterations 0
smoothSolver:  Solving for k, Initial residual = 9.82259e-08, Final residual = 9.82259e-08, No Iterations 0
ExecutionTime = 1.12 s  ClockTime = 2 s

Time = 3.5

smoothSolver:  Solving for Ux, Initial residual = 0.0145337, Final residual = 2.9796e-07, No Iterations 2
smoothSolver:  Solving for Uy, Initial residual = 0.00581942, Final residual = 9.38919e-08, No Iterations 2
smoothSolver:  Solving for Uz, Initial residual = 0.00678736, Final residual = 1.30216e-07, No Iterations 2
GAMG:  Solving for p, Initial residual = 0.0029946, Final residual = 8.67225e-07, No Iterations 11
time step continuity errors : sum local = 1.22743e-08, global = -4.102e-10, cumulative = 1.14131e-06
smoothSolver:  Solving for epsilon, Initial residual = 3.86552e-06, Final residual = 3.86552e-06, No Iterations 0
smoothSolver:  Solving for k, Initial residual = 9.88465e-08, Final residual = 9.88465e-08, No Iterations 0
ExecutionTime = 1.13 s  ClockTime = 2 s

Time = 3.55

smoothSolver:  Solving for Ux, Initial residual = 0.0143879, Final residual = 3.00002e-07, No Iterations 2
smoothSolver:  Solving for Uy, Initial residual = 0.0058249, Final residual = 9.39649e-08, No Iterations 2
smoothSolver:  Solving for Uz, Initial residual = 0.00675321, Final residual = 1.28685e-07, No Iterations 2
GAMG:  Solving for p, Initial residual = 0.00290324, Final residual = 7.59983e-07, No Iterations 13
time step continuity errors : sum local = 1.06803e-08, global = -4.45104e-10, cumulative = 1.14087e-06
smoothSolver:  Solving for epsilon, Initial residual = 3.86594e-06, Final residual = 3.86594e-06, No Iterations 0
smoothSolver:  Solving for k, Initial residual = 9.95675e-08, Final residual = 9.95675e-08, No Iterations 0
ExecutionTime = 1.15 s  ClockTime = 2 s

Time = 3.6

smoothSolver:  Solving for Ux, Initial residual = 0.014189, Final residual = 2.68738e-07, No Iterations 2
smoothSolver:  Solving for Uy, Initial residual = 0.00581998, Final residual = 9.38601e-08, No Iterations 2
smoothSolver:  Solving for Uz, Initial residual = 0.00674252, Final residual = 1.27376e-07, No Iterations 2
GAMG:  Solving for p, Initial residual = 0.00291611, Final residual = 9.52568e-07, No Iterations 11
time step continuity errors : sum local = 1.33014e-08, global = -4.27769e-10, cumulative = 1.14044e-06
smoothSolver:  Solving for epsilon, Initial residual = 3.86634e-06, Final residual = 3.86634e-06, No Iterations 0
smoothSolver:  Solving for k, Initial residual = 1.0041e-07, Final residual = 1.0041e-07, No Iterations 0
ExecutionTime = 1.16 s  ClockTime = 2 s

Time = 3.65

smoothSolver:  Solving for Ux, Initial residual = 0.013997, Final residual = 2.77737e-07, No Iterations 2
smoothSolver:  Solving for Uy, Initial residual = 0.00580271, Final residual = 9.36596e-08, No Iterations 2
smoothSolver:  Solving for Uz, Initial residual = 0.00674209, Final residual = 1.26538e-07, No Iterations 2
GAMG:  Solving for p, Initial residual = 0.00292627, Final residual = 8.08257e-07, No Iterations 13
time step continuity errors : sum local = 1.12149e-08, global = -4.74769e-10, cumulative = 1.13996e-06
smoothSolver:  Solving for epsilon, Initial residual = 3.86671e-06, Final residual = 3.86671e-06, No Iterations 0
smoothSolver:  Solving for k, Initial residual = 1.01214e-07, Final residual = 1.01214e-07, No Iterations 0
ExecutionTime = 1.17 s  ClockTime = 2 s

Time = 3.7

smoothSolver:  Solving for Ux, Initial residual = 0.0137978, Final residual = 2.62664e-07, No Iterations 2
smoothSolver:  Solving for Uy, Initial residual = 0.00577585, Final residual = 9.32768e-08, No Iterations 2
smoothSolver:  Solving for Uz, Initial residual = 0.00672011, Final residual = 1.2607e-07, No Iterations 2
GAMG:  Solving for p, Initial residual = 0.00296163, Final residual = 8.99117e-07, No Iterations 11
time step continuity errors : sum local = 1.22793e-08, global = -4.25149e-10, cumulative = 1.13954e-06
smoothSolver:  Solving for epsilon, Initial residual = 3.86707e-06, Final residual = 3.86707e-06, No Iterations 0
smoothSolver:  Solving for k, Initial residual = 1.01933e-07, Final residual = 1.01933e-07, No Iterations 0
ExecutionTime = 1.19 s  ClockTime = 2 s

Time = 3.75

smoothSolver:  Solving for Ux, Initial residual = 0.0135606, Final residual = 2.49771e-07, No Iterations 2
smoothSolver:  Solving for Uy, Initial residual = 0.00577492, Final residual = 9.26331e-08, No Iterations 2
smoothSolver:  Solving for Uz, Initial residual = 0.00668718, Final residual = 1.2583e-07, No Iterations 2
GAMG:  Solving for p, Initial residual = 0.00308618, Final residual = 7.88303e-07, No Iterations 13
time step continuity errors : sum local = 1.06559e-08, global = -4.66447e-10, cumulative = 1.13907e-06
smoothSolver:  Solving for epsilon, Initial residual = 3.86747e-06, Final residual = 3.86747e-06, No Iterations 0
smoothSolver:  Solving for k, Initial residual = 1.02566e-07, Final residual = 1.02566e-07, No Iterations 0
ExecutionTime = 1.2 s  ClockTime = 2 s

Time = 3.8

smoothSolver:  Solving for Ux, Initial residual = 0.0134197, Final residual = 2.52814e-07, No Iterations 2
smoothSolver:  Solving for Uy, Initial residual = 0.00577746, Final residual = 9.19167e-08, No Iterations 2
smoothSolver:  Solving for Uz, Initial residual = 0.00665041, Final residual = 1.25241e-07, No Iterations 2
GAMG:  Solving for p, Initial residual = 0.00316354, Final residual = 9.06539e-07, No Iterations 11
time step continuity errors : sum local = 1.21302e-08, global = -4.41229e-10, cumulative = 1.13863e-06
smoothSolver:  Solving for epsilon, Initial residual = 3.86786e-06, Final residual = 3.86786e-06, No Iterations 0
smoothSolver:  Solving for k, Initial residual = 1.03168e-07, Final residual = 1.03168e-07, No Iterations 0
ExecutionTime = 1.21 s  ClockTime = 2 s

Time = 3.85

smoothSolver:  Solving for Ux, Initial residual = 0.013263, Final residual = 2.65659e-07, No Iterations 2
smoothSolver:  Solving for Uy, Initial residual = 0.00577411, Final residual = 9.13813e-08, No Iterations 2
smoothSolver:  Solving for Uz, Initial residual = 0.00659647, Final residual = 1.24205e-07, No Iterations 2
GAMG:  Solving for p, Initial residual = 0.00316249, Final residual = 8.37946e-07, No Iterations 13
time step continuity errors : sum local = 1.11319e-08, global = -4.90169e-10, cumulative = 1.13814e-06
smoothSolver:  Solving for epsilon, Initial residual = 3.86823e-06, Final residual = 3.86823e-06, No Iterations 0
smoothSolver:  Solving for k, Initial residual = 1.03716e-07, Final residual = 1.03716e-07, No Iterations 0
ExecutionTime = 1.23 s  ClockTime = 2 s

Time = 3.9

smoothSolver:  Solving for Ux, Initial residual = 0.0130287, Final residual = 2.60402e-07, No Iterations 2
smoothSolver:  Solving for Uy, Initial residual = 0.00576576, Final residual = 9.09996e-08, No Iterations 2
smoothSolver:  Solving for Uz, Initial residual = 0.00656672, Final residual = 1.2299e-07, No Iterations 2
GAMG:  Solving for p, Initial residual = 0.00308448, Final residual = 7.84872e-07, No Iterations 13
time step continuity errors : sum local = 1.02972e-08, global = -4.52417e-10, cumulative = 1.13769e-06
smoothSolver:  Solving for epsilon, Initial residual = 3.86863e-06, Final residual = 3.86863e-06, No Iterations 0
smoothSolver:  Solving for k, Initial residual = 1.04189e-07, Final residual = 1.04189e-07, No Iterations 0
ExecutionTime = 1.24 s  ClockTime = 2 s

Time = 3.95

smoothSolver:  Solving for Ux, Initial residual = 0.0128181, Final residual = 2.43216e-07, No Iterations 2
smoothSolver:  Solving for Uy, Initial residual = 0.00575963, Final residual = 9.02466e-08, No Iterations 2
smoothSolver:  Solving for Uz, Initial residual = 0.00655718, Final residual = 1.21592e-07, No Iterations 2
GAMG:  Solving for p, Initial residual = 0.00312282, Final residual = 9.1001e-07, No Iterations 13
time step continuity errors : sum local = 1.18317e-08, global = -5.63048e-10, cumulative = 1.13713e-06
smoothSolver:  Solving for epsilon, Initial residual = 3.86904e-06, Final residual = 3.86904e-06, No Iterations 0
smoothSolver:  Solving for k, Initial residual = 1.04686e-07, Final residual = 1.04686e-07, No Iterations 0
ExecutionTime = 1.25 s  ClockTime = 2 s

Time = 4

smoothSolver:  Solving for Ux, Initial residual = 0.0126383, Final residual = 2.47127e-07, No Iterations 2
smoothSolver:  Solving for Uy, Initial residual = 0.00574274, Final residual = 8.90601e-08, No Iterations 2
smoothSolver:  Solving for Uz, Initial residual = 0.00653292, Final residual = 1.19933e-07, No Iterations 2
GAMG:  Solving for p, Initial residual = 0.00324536, Final residual = 9.01547e-07, No Iterations 13
time step continuity errors : sum local = 1.16286e-08, global = -5.67917e-10, cumulative = 1.13656e-06
smoothSolver:  Solving for epsilon, Initial residual = 3.86942e-06, Final residual = 3.86942e-06, No Iterations 0
smoothSolver:  Solving for k, Initial residual = 1.05181e-07, Final residual = 1.05181e-07, No Iterations 0
ExecutionTime = 1.28 s  ClockTime = 2 s

Time = 4.05

smoothSolver:  Solving for Ux, Initial residual = 0.0124584, Final residual = 2.44891e-07, No Iterations 2
smoothSolver:  Solving for Uy, Initial residual = 0.00571836, Final residual = 8.77563e-08, No Iterations 2
smoothSolver:  Solving for Uz, Initial residual = 0.00651797, Final residual = 1.1806e-07, No Iterations 2
GAMG:  Solving for p, Initial residual = 0.00342787, Final residual = 7.93423e-07, No Iterations 15
time step continuity errors : sum local = 1.01834e-08, global = -4.75016e-10, cumulative = 1.13608e-06
smoothSolver:  Solving for epsilon, Initial residual = 3.8698e-06, Final residual = 3.8698e-06, No Iterations 0
smoothSolver:  Solving for k, Initial residual = 1.05647e-07, Final residual = 1.05647e-07, No Iterations 0
ExecutionTime = 1.29 s  ClockTime = 2 s

Time = 4.1

smoothSolver:  Solving for Ux, Initial residual = 0.0122985, Final residual = 2.29722e-07, No Iterations 2
smoothSolver:  Solving for Uy, Initial residual = 0.00569334, Final residual = 8.6354e-08, No Iterations 2
smoothSolver:  Solving for Uz, Initial residual = 0.00650033, Final residual = 1.15915e-07, No Iterations 2
GAMG:  Solving for p, Initial residual = 0.0035283, Final residual = 8.54059e-07, No Iterations 15
time step continuity errors : sum local = 1.09251e-08, global = -4.52485e-10, cumulative = 1.13563e-06
smoothSolver:  Solving for epsilon, Initial residual = 3.87016e-06, Final residual = 3.87016e-06, No Iterations 0
smoothSolver:  Solving for k, Initial residual = 1.06049e-07, Final residual = 1.06049e-07, No Iterations 0
ExecutionTime = 1.3 s  ClockTime = 2 s

Time = 4.15

smoothSolver:  Solving for Ux, Initial residual = 0.0121768, Final residual = 2.34582e-07, No Iterations 2
smoothSolver:  Solving for Uy, Initial residual = 0.00566022, Final residual = 8.46216e-08, No Iterations 2
smoothSolver:  Solving for Uz, Initial residual = 0.00648231, Final residual = 1.1395e-07, No Iterations 2
GAMG:  Solving for p, Initial residual = 0.00348611, Final residual = 8.41083e-07, No Iterations 15
time step continuity errors : sum local = 1.06342e-08, global = -4.59703e-10, cumulative = 1.13517e-06
smoothSolver:  Solving for epsilon, Initial residual = 3.87051e-06, Final residual = 3.87051e-06, No Iterations 0
smoothSolver:  Solving for k, Initial residual = 1.06439e-07, Final residual = 1.06439e-07, No Iterations 0
ExecutionTime = 1.32 s  ClockTime = 2 s

Time = 4.2

smoothSolver:  Solving for Ux, Initial residual = 0.0120483, Final residual = 2.27748e-07, No Iterations 2
smoothSolver:  Solving for Uy, Initial residual = 0.00565243, Final residual = 8.26228e-08, No Iterations 2
smoothSolver:  Solving for Uz, Initial residual = 0.0064438, Final residual = 1.12148e-07, No Iterations 2
GAMG:  Solving for p, Initial residual = 0.00349362, Final residual = 7.78468e-07, No Iterations 15
time step continuity errors : sum local = 9.7466e-09, global = -4.63596e-10, cumulative = 1.13471e-06
smoothSolver:  Solving for epsilon, Initial residual = 3.87085e-06, Final residual = 3.87085e-06, No Iterations 0
smoothSolver:  Solving for k, Initial residual = 1.06963e-07, Final residual = 1.06963e-07, No Iterations 0
ExecutionTime = 1.33 s  ClockTime = 2 s

Time = 4.25

smoothSolver:  Solving for Ux, Initial residual = 0.0119473, Final residual = 2.35341e-07, No Iterations 2
smoothSolver:  Solving for Uy, Initial residual = 0.00564567, Final residual = 8.10453e-08, No Iterations 2
smoothSolver:  Solving for Uz, Initial residual = 0.00643154, Final residual = 1.1101e-07, No Iterations 2
GAMG:  Solving for p, Initial residual = 0.00346788, Final residual = 7.58763e-07, No Iterations 15
time step continuity errors : sum local = 9.42328e-09, global = -4.61242e-10, cumulative = 1.13425e-06
smoothSolver:  Solving for epsilon, Initial residual = 3.87118e-06, Final residual = 3.87118e-06, No Iterations 0
smoothSolver:  Solving for k, Initial residual = 1.07579e-07, Final residual = 1.07579e-07, No Iterations 0
ExecutionTime = 1.34 s  ClockTime = 2 s

Time = 4.3

smoothSolver:  Solving for Ux, Initial residual = 0.0117774, Final residual = 2.16505e-07, No Iterations 2
smoothSolver:  Solving for Uy, Initial residual = 0.00563581, Final residual = 7.98867e-08, No Iterations 2
smoothSolver:  Solving for Uz, Initial residual = 0.00641909, Final residual = 1.09599e-07, No Iterations 2
GAMG:  Solving for p, Initial residual = 0.0034274, Final residual = 9.92961e-07, No Iterations 13
time step continuity errors : sum local = 1.22549e-08, global = -5.81444e-10, cumulative = 1.13366e-06
smoothSolver:  Solving for epsilon, Initial residual = 3.87149e-06, Final residual = 3.87149e-06, No Iterations 0
smoothSolver:  Solving for k, Initial residual = 1.08232e-07, Final residual = 1.08232e-07, No Iterations 0
ExecutionTime = 1.36 s  ClockTime = 2 s

Time = 4.35

smoothSolver:  Solving for Ux, Initial residual = 0.0116719, Final residual = 2.08205e-07, No Iterations 2
smoothSolver:  Solving for Uy, Initial residual = 0.00561912, Final residual = 7.92513e-08, No Iterations 2
smoothSolver:  Solving for Uz, Initial residual = 0.00642018, Final residual = 1.08117e-07, No Iterations 2
GAMG:  Solving for p, Initial residual = 0.00350837, Final residual = 7.73501e-07, No Iterations 15
time step continuity errors : sum local = 9.51432e-09, global = -4.91763e-10, cumulative = 1.13317e-06
smoothSolver:  Solving for epsilon, Initial residual = 3.87179e-06, Final residual = 3.87179e-06, No Iterations 0
smoothSolver:  Solving for k, Initial residual = 1.08878e-07, Final residual = 1.08878e-07, No Iterations 0
ExecutionTime = 1.37 s  ClockTime = 2 s

Time = 4.4

smoothSolver:  Solving for Ux, Initial residual = 0.0115942, Final residual = 2.12731e-07, No Iterations 2
smoothSolver:  Solving for Uy, Initial residual = 0.005602, Final residual = 7.92323e-08, No Iterations 2
smoothSolver:  Solving for Uz, Initial residual = 0.00640676, Final residual = 1.06766e-07, No Iterations 2
GAMG:  Solving for p, Initial residual = 0.00370938, Final residual = 9.44192e-07, No Iterations 13
time step continuity errors : sum local = 1.15618e-08, global = -5.51426e-10, cumulative = 1.13262e-06
smoothSolver:  Solving for epsilon, Initial residual = 3.87208e-06, Final residual = 3.87208e-06, No Iterations 0
smoothSolver:  Solving for k, Initial residual = 1.0945e-07, Final residual = 1.0945e-07, No Iterations 0
ExecutionTime = 1.39 s  ClockTime = 2 s

Time = 4.45

smoothSolver:  Solving for Ux, Initial residual = 0.0113777, Final residual = 2.18248e-07, No Iterations 2
smoothSolver:  Solving for Uy, Initial residual = 0.00558651, Final residual = 7.96406e-08, No Iterations 2
smoothSolver:  Solving for Uz, Initial residual = 0.00638587, Final residual = 1.0511e-07, No Iterations 2
GAMG:  Solving for p, Initial residual = 0.00368015, Final residual = 7.42826e-07, No Iterations 15
time step continuity errors : sum local = 9.05782e-09, global = -4.87985e-10, cumulative = 1.13213e-06
smoothSolver:  Solving for epsilon, Initial residual = 3.87235e-06, Final residual = 3.87235e-06, No Iterations 0
smoothSolver:  Solving for k, Initial residual = 1.09953e-07, Final residual = 1.09953e-07, No Iterations 0
ExecutionTime = 1.4 s  ClockTime = 2 s

Time = 4.5

smoothSolver:  Solving for Ux, Initial residual = 0.0113154, Final residual = 2.05826e-07, No Iterations 2
smoothSolver:  Solving for Uy, Initial residual = 0.00556685, Final residual = 8.09071e-08, No Iterations 2
smoothSolver:  Solving for Uz, Initial residual = 0.00636631, Final residual = 1.03565e-07, No Iterations 2
GAMG:  Solving for p, Initial residual = 0.00371253, Final residual = 8.85172e-07, No Iterations 13
time step continuity errors : sum local = 1.07504e-08, global = -5.3312e-10, cumulative = 1.1316e-06
smoothSolver:  Solving for epsilon, Initial residual = 3.87263e-06, Final residual = 3.87263e-06, No Iterations 0
smoothSolver:  Solving for k, Initial residual = 1.10392e-07, Final residual = 1.10392e-07, No Iterations 0
ExecutionTime = 1.41 s  ClockTime = 2 s

Time = 4.55

smoothSolver:  Solving for Ux, Initial residual = 0.0112844, Final residual = 2.09173e-07, No Iterations 2
smoothSolver:  Solving for Uy, Initial residual = 0.00556008, Final residual = 8.22563e-08, No Iterations 2
smoothSolver:  Solving for Uz, Initial residual = 0.0063533, Final residual = 1.0222e-07, No Iterations 2
GAMG:  Solving for p, Initial residual = 0.00367776, Final residual = 9.92743e-07, No Iterations 13
time step continuity errors : sum local = 1.20554e-08, global = -6.35491e-10, cumulative = 1.13096e-06
smoothSolver:  Solving for epsilon, Initial residual = 3.8729e-06, Final residual = 3.8729e-06, No Iterations 0
smoothSolver:  Solving for k, Initial residual = 1.10865e-07, Final residual = 1.10865e-07, No Iterations 0
ExecutionTime = 1.43 s  ClockTime = 2 s

Time = 4.6

smoothSolver:  Solving for Ux, Initial residual = 0.011216, Final residual = 2.00668e-07, No Iterations 2
smoothSolver:  Solving for Uy, Initial residual = 0.00555344, Final residual = 8.33466e-08, No Iterations 2
smoothSolver:  Solving for Uz, Initial residual = 0.0063448, Final residual = 1.00808e-07, No Iterations 2
GAMG:  Solving for p, Initial residual = 0.00363628, Final residual = 8.78568e-07, No Iterations 13
time step continuity errors : sum local = 1.06377e-08, global = -5.71636e-10, cumulative = 1.13039e-06
smoothSolver:  Solving for epsilon, Initial residual = 3.87317e-06, Final residual = 3.87317e-06, No Iterations 0
smoothSolver:  Solving for k, Initial residual = 1.11307e-07, Final residual = 1.11307e-07, No Iterations 0
ExecutionTime = 1.44 s  ClockTime = 2 s

Time = 4.65

smoothSolver:  Solving for Ux, Initial residual = 0.0111251, Final residual = 2.06728e-07, No Iterations 2
smoothSolver:  Solving for Uy, Initial residual = 0.00554018, Final residual = 8.50787e-08, No Iterations 2
smoothSolver:  Solving for Uz, Initial residual = 0.00634362, Final residual = 9.97683e-08, No Iterations 2
GAMG:  Solving for p, Initial residual = 0.0035449, Final residual = 8.8752e-07, No Iterations 13
time step continuity errors : sum local = 1.07069e-08, global = -5.74202e-10, cumulative = 1.12982e-06
smoothSolver:  Solving for epsilon, Initial residual = 3.87342e-06, Final residual = 3.87342e-06, No Iterations 0
smoothSolver:  Solving for k, Initial residual = 1.117e-07, Final residual = 1.117e-07, No Iterations 0
ExecutionTime = 1.45 s  ClockTime = 2 s

Time = 4.7

smoothSolver:  Solving for Ux, Initial residual = 0.0110213, Final residual = 1.98076e-07, No Iterations 2
smoothSolver:  Solving for Uy, Initial residual = 0.0055291, Final residual = 8.66868e-08, No Iterations 2
smoothSolver:  Solving for Uz, Initial residual = 0.00632613, Final residual = 9.87378e-08, No Iterations 2
GAMG:  Solving for p, Initial residual = 0.00351255, Final residual = 8.56557e-07, No Iterations 13
time step continuity errors : sum local = 1.02999e-08, global = -5.51044e-10, cumulative = 1.12927e-06
smoothSolver:  Solving for epsilon, Initial residual = 3.87367e-06, Final residual = 3.87367e-06, No Iterations 0
[...]

Time = 28.8

smoothSolver:  Solving for Ux, Initial residual = 0.0147644, Final residual = 3.70929e-07, No Iterations 2
smoothSolver:  Solving for Uy, Initial residual = 0.00723257, Final residual = 2.03901e-07, No Iterations 2
smoothSolver:  Solving for Uz, Initial residual = 0.00653092, Final residual = 1.72491e-07, No Iterations 2
GAMG:  Solving for p, Initial residual = 0.0357776, Final residual = 9.7858e-07, No Iterations 29
time step continuity errors : sum local = 2.92175e-09, global = 9.27846e-11, cumulative = 1.09962e-06
smoothSolver:  Solving for epsilon, Initial residual = 3.88444e-06, Final residual = 3.88444e-06, No Iterations 0
smoothSolver:  Solving for k, Initial residual = 1.34786e-07, Final residual = 1.34786e-07, No Iterations 0
ExecutionTime = 8.56 s  ClockTime = 9 s

Time = 28.85

smoothSolver:  Solving for Ux, Initial residual = 0.0149789, Final residual = 3.88788e-07, No Iterations 2
smoothSolver:  Solving for Uy, Initial residual = 0.00720546, Final residual = 2.05847e-07, No Iterations 2
smoothSolver:  Solving for Uz, Initial residual = 0.00653113, Final residual = 1.75359e-07, No Iterations 2
GAMG:  Solving for p, Initial residual = 0.0417959, Final residual = 9.51723e-07, No Iterations 33
time step continuity errors : sum local = 2.6855e-09, global = 7.02068e-11, cumulative = 1.09969e-06
smoothSolver:  Solving for epsilon, Initial residual = 3.88473e-06, Final residual = 3.88473e-06, No Iterations 0
smoothSolver:  Solving for k, Initial residual = 1.35218e-07, Final residual = 1.35218e-07, No Iterations 0
ExecutionTime = 8.58 s  ClockTime = 9 s

Time = 28.9

smoothSolver:  Solving for Ux, Initial residual = 0.0151057, Final residual = 4.18609e-07, No Iterations 2
smoothSolver:  Solving for Uy, Initial residual = 0.00715217, Final residual = 2.05708e-07, No Iterations 2
smoothSolver:  Solving for Uz, Initial residual = 0.00654537, Final residual = 1.76614e-07, No Iterations 2
GAMG:  Solving for p, Initial residual = 0.0507136, Final residual = 9.54542e-07, No Iterations 33
time step continuity errors : sum local = 2.9965e-09, global = 9.25604e-11, cumulative = 1.09979e-06
smoothSolver:  Solving for epsilon, Initial residual = 3.88505e-06, Final residual = 3.88505e-06, No Iterations 0
smoothSolver:  Solving for k, Initial residual = 1.35654e-07, Final residual = 1.35654e-07, No Iterations 0
ExecutionTime = 8.6 s  ClockTime = 9 s

Time = 28.95

smoothSolver:  Solving for Ux, Initial residual = 0.0156474, Final residual = 4.562e-07, No Iterations 2
smoothSolver:  Solving for Uy, Initial residual = 0.00712231, Final residual = 2.05805e-07, No Iterations 2
smoothSolver:  Solving for Uz, Initial residual = 0.00657461, Final residual = 1.76894e-07, No Iterations 2
GAMG:  Solving for p, Initial residual = 0.0378438, Final residual = 9.29555e-07, No Iterations 34
time step continuity errors : sum local = 2.96479e-09, global = 2.045e-10, cumulative = 1.09999e-06
smoothSolver:  Solving for epsilon, Initial residual = 3.88536e-06, Final residual = 3.88536e-06, No Iterations 0
smoothSolver:  Solving for k, Initial residual = 1.36072e-07, Final residual = 1.36072e-07, No Iterations 0
ExecutionTime = 8.62 s  ClockTime = 9 s

Time = 29

smoothSolver:  Solving for Ux, Initial residual = 0.0159675, Final residual = 4.91276e-07, No Iterations 2
smoothSolver:  Solving for Uy, Initial residual = 0.00717101, Final residual = 2.0579e-07, No Iterations 2
smoothSolver:  Solving for Uz, Initial residual = 0.00660791, Final residual = 1.77918e-07, No Iterations 2
GAMG:  Solving for p, Initial residual = 0.0306172, Final residual = 9.0177e-07, No Iterations 29
time step continuity errors : sum local = 3.26898e-09, global = 1.5141e-10, cumulative = 1.10014e-06
smoothSolver:  Solving for epsilon, Initial residual = 3.88566e-06, Final residual = 3.88566e-06, No Iterations 0
smoothSolver:  Solving for k, Initial residual = 1.36455e-07, Final residual = 1.36455e-07, No Iterations 0
ExecutionTime = 8.64 s  ClockTime = 9 s

Time = 29.05

smoothSolver:  Solving for Ux, Initial residual = 0.0161546, Final residual = 5.22489e-07, No Iterations 2
smoothSolver:  Solving for Uy, Initial residual = 0.00720899, Final residual = 2.05644e-07, No Iterations 2
smoothSolver:  Solving for Uz, Initial residual = 0.0066684, Final residual = 1.78835e-07, No Iterations 2
GAMG:  Solving for p, Initial residual = 0.0301938, Final residual = 9.03987e-07, No Iterations 27
time step continuity errors : sum local = 3.15371e-09, global = 1.25194e-10, cumulative = 1.10027e-06
smoothSolver:  Solving for epsilon, Initial residual = 3.88596e-06, Final residual = 3.88596e-06, No Iterations 0
smoothSolver:  Solving for k, Initial residual = 1.36789e-07, Final residual = 1.36789e-07, No Iterations 0
ExecutionTime = 8.66 s  ClockTime = 9 s

Time = 29.1

smoothSolver:  Solving for Ux, Initial residual = 0.0166053, Final residual = 5.92942e-07, No Iterations 2
smoothSolver:  Solving for Uy, Initial residual = 0.0072263, Final residual = 2.08139e-07, No Iterations 2
smoothSolver:  Solving for Uz, Initial residual = 0.0067149, Final residual = 1.7958e-07, No Iterations 2
GAMG:  Solving for p, Initial residual = 0.0365873, Final residual = 7.82413e-07, No Iterations 23
time step continuity errors : sum local = 2.3048e-09, global = 8.00163e-11, cumulative = 1.10035e-06
smoothSolver:  Solving for epsilon, Initial residual = 3.88623e-06, Final residual = 3.88623e-06, No Iterations 0
smoothSolver:  Solving for k, Initial residual = 1.37057e-07, Final residual = 1.37057e-07, No Iterations 0
ExecutionTime = 8.68 s  ClockTime = 9 s

Time = 29.15

smoothSolver:  Solving for Ux, Initial residual = 0.0168987, Final residual = 6.42549e-07, No Iterations 2
smoothSolver:  Solving for Uy, Initial residual = 0.00722963, Final residual = 2.08217e-07, No Iterations 2
smoothSolver:  Solving for Uz, Initial residual = 0.00673685, Final residual = 1.79685e-07, No Iterations 2
GAMG:  Solving for p, Initial residual = 0.0465708, Final residual = 9.42568e-07, No Iterations 17
time step continuity errors : sum local = 2.15129e-09, global = -2.65102e-11, cumulative = 1.10032e-06
smoothSolver:  Solving for epsilon, Initial residual = 3.88648e-06, Final residual = 3.88648e-06, No Iterations 0
smoothSolver:  Solving for k, Initial residual = 1.37268e-07, Final residual = 1.37268e-07, No Iterations 0
ExecutionTime = 8.69 s  ClockTime = 9 s

Time = 29.2

smoothSolver:  Solving for Ux, Initial residual = 0.017287, Final residual = 6.94234e-07, No Iterations 2
smoothSolver:  Solving for Uy, Initial residual = 0.00725022, Final residual = 2.04495e-07, No Iterations 2
smoothSolver:  Solving for Uz, Initial residual = 0.00674352, Final residual = 1.77359e-07, No Iterations 2
GAMG:  Solving for p, Initial residual = 0.0340309, Final residual = 8.14772e-07, No Iterations 17
time step continuity errors : sum local = 2.5134e-09, global = -2.09416e-10, cumulative = 1.10011e-06
smoothSolver:  Solving for epsilon, Initial residual = 3.8867e-06, Final residual = 3.8867e-06, No Iterations 0
smoothSolver:  Solving for k, Initial residual = 1.37408e-07, Final residual = 1.37408e-07, No Iterations 0
ExecutionTime = 8.7 s  ClockTime = 9 s

Time = 29.25

smoothSolver:  Solving for Ux, Initial residual = 0.017298, Final residual = 7.14322e-07, No Iterations 2
smoothSolver:  Solving for Uy, Initial residual = 0.00726557, Final residual = 2.04271e-07, No Iterations 2
smoothSolver:  Solving for Uz, Initial residual = 0.00673141, Final residual = 1.73539e-07, No Iterations 2
GAMG:  Solving for p, Initial residual = 0.0240366, Final residual = 5.68518e-07, No Iterations 17
time step continuity errors : sum local = 2.42454e-09, global = -1.86465e-10, cumulative = 1.09993e-06
smoothSolver:  Solving for epsilon, Initial residual = 3.8869e-06, Final residual = 3.8869e-06, No Iterations 0
smoothSolver:  Solving for k, Initial residual = 1.3751e-07, Final residual = 1.3751e-07, No Iterations 0
ExecutionTime = 8.72 s  ClockTime = 9 s

Time = 29.3

smoothSolver:  Solving for Ux, Initial residual = 0.0171028, Final residual = 6.86003e-07, No Iterations 2
smoothSolver:  Solving for Uy, Initial residual = 0.00729408, Final residual = 2.07843e-07, No Iterations 2
smoothSolver:  Solving for Uz, Initial residual = 0.00671169, Final residual = 1.69461e-07, No Iterations 2
GAMG:  Solving for p, Initial residual = 0.0178399, Final residual = 6.25909e-07, No Iterations 17
time step continuity errors : sum local = 3.52772e-09, global = -2.79233e-10, cumulative = 1.09965e-06
smoothSolver:  Solving for epsilon, Initial residual = 3.88707e-06, Final residual = 3.88707e-06, No Iterations 0
smoothSolver:  Solving for k, Initial residual = 1.37549e-07, Final residual = 1.37549e-07, No Iterations 0
ExecutionTime = 8.73 s  ClockTime = 9 s

Time = 29.35

smoothSolver:  Solving for Ux, Initial residual = 0.0170729, Final residual = 6.75736e-07, No Iterations 2
smoothSolver:  Solving for Uy, Initial residual = 0.00731889, Final residual = 2.11938e-07, No Iterations 2
smoothSolver:  Solving for Uz, Initial residual = 0.00668753, Final residual = 1.69917e-07, No Iterations 2
GAMG:  Solving for p, Initial residual = 0.0141073, Final residual = 8.22272e-07, No Iterations 17
time step continuity errors : sum local = 5.87917e-09, global = -4.97315e-10, cumulative = 1.09915e-06
smoothSolver:  Solving for epsilon, Initial residual = 3.88721e-06, Final residual = 3.88721e-06, No Iterations 0
smoothSolver:  Solving for k, Initial residual = 1.37527e-07, Final residual = 1.37527e-07, No Iterations 0
ExecutionTime = 8.75 s  ClockTime = 9 s

Time = 29.4

smoothSolver:  Solving for Ux, Initial residual = 0.0172661, Final residual = 6.61054e-07, No Iterations 2
smoothSolver:  Solving for Uy, Initial residual = 0.00732238, Final residual = 2.17795e-07, No Iterations 2
smoothSolver:  Solving for Uz, Initial residual = 0.00666161, Final residual = 1.71991e-07, No Iterations 2
GAMG:  Solving for p, Initial residual = 0.0119269, Final residual = 7.31085e-07, No Iterations 19
time step continuity errors : sum local = 6.42582e-09, global = -5.15056e-10, cumulative = 1.09863e-06
smoothSolver:  Solving for epsilon, Initial residual = 3.88731e-06, Final residual = 3.88731e-06, No Iterations 0
smoothSolver:  Solving for k, Initial residual = 1.37472e-07, Final residual = 1.37472e-07, No Iterations 0
ExecutionTime = 8.76 s  ClockTime = 9 s

Time = 29.45

smoothSolver:  Solving for Ux, Initial residual = 0.0173319, Final residual = 6.89528e-07, No Iterations 2
smoothSolver:  Solving for Uy, Initial residual = 0.00729849, Final residual = 2.2469e-07, No Iterations 2
smoothSolver:  Solving for Uz, Initial residual = 0.00664381, Final residual = 1.74669e-07, No Iterations 2
GAMG:  Solving for p, Initial residual = 0.0113424, Final residual = 9.63672e-07, No Iterations 17
time step continuity errors : sum local = 1.03784e-08, global = -8.72199e-10, cumulative = 1.09776e-06
smoothSolver:  Solving for epsilon, Initial residual = 3.88739e-06, Final residual = 3.88739e-06, No Iterations 0
smoothSolver:  Solving for k, Initial residual = 1.37397e-07, Final residual = 1.37397e-07, No Iterations 0
ExecutionTime = 8.78 s  ClockTime = 9 s

Time = 29.5

smoothSolver:  Solving for Ux, Initial residual = 0.0174581, Final residual = 7.28552e-07, No Iterations 2
smoothSolver:  Solving for Uy, Initial residual = 0.007257, Final residual = 2.29304e-07, No Iterations 2
smoothSolver:  Solving for Uz, Initial residual = 0.0066525, Final residual = 1.79969e-07, No Iterations 2
GAMG:  Solving for p, Initial residual = 0.00882538, Final residual = 7.30967e-07, No Iterations 17
time step continuity errors : sum local = 8.79797e-09, global = -8.026e-10, cumulative = 1.09696e-06
smoothSolver:  Solving for epsilon, Initial residual = 3.88744e-06, Final residual = 3.88744e-06, No Iterations 0
smoothSolver:  Solving for k, Initial residual = 1.37259e-07, Final residual = 1.37259e-07, No Iterations 0
ExecutionTime = 8.79 s  ClockTime = 9 s

Time = 29.55

smoothSolver:  Solving for Ux, Initial residual = 0.0177404, Final residual = 7.87373e-07, No Iterations 2
smoothSolver:  Solving for Uy, Initial residual = 0.00729048, Final residual = 2.33233e-07, No Iterations 2
smoothSolver:  Solving for Uz, Initial residual = 0.00664241, Final residual = 1.87764e-07, No Iterations 2
GAMG:  Solving for p, Initial residual = 0.00764557, Final residual = 8.0085e-07, No Iterations 15
time step continuity errors : sum local = 1.03183e-08, global = -9.57217e-10, cumulative = 1.096e-06
smoothSolver:  Solving for epsilon, Initial residual = 3.88746e-06, Final residual = 3.88746e-06, No Iterations 0
smoothSolver:  Solving for k, Initial residual = 1.37057e-07, Final residual = 1.37057e-07, No Iterations 0
ExecutionTime = 8.8 s  ClockTime = 9 s

Time = 29.6

smoothSolver:  Solving for Ux, Initial residual = 0.0181745, Final residual = 8.71035e-07, No Iterations 2
smoothSolver:  Solving for Uy, Initial residual = 0.00733428, Final residual = 2.34984e-07, No Iterations 2
smoothSolver:  Solving for Uz, Initial residual = 0.0066413, Final residual = 1.96421e-07, No Iterations 2
GAMG:  Solving for p, Initial residual = 0.00670636, Final residual = 8.76189e-07, No Iterations 15
time step continuity errors : sum local = 1.22876e-08, global = -7.30878e-10, cumulative = 1.09527e-06
smoothSolver:  Solving for epsilon, Initial residual = 3.88745e-06, Final residual = 3.88745e-06, No Iterations 0
smoothSolver:  Solving for k, Initial residual = 1.36789e-07, Final residual = 1.36789e-07, No Iterations 0
ExecutionTime = 8.82 s  ClockTime = 9 s

Time = 29.65

smoothSolver:  Solving for Ux, Initial residual = 0.0179431, Final residual = 9.24336e-07, No Iterations 2
smoothSolver:  Solving for Uy, Initial residual = 0.00734739, Final residual = 2.37063e-07, No Iterations 2
smoothSolver:  Solving for Uz, Initial residual = 0.00665604, Final residual = 2.01901e-07, No Iterations 2
GAMG:  Solving for p, Initial residual = 0.00602168, Final residual = 8.27461e-07, No Iterations 12
time step continuity errors : sum local = 1.32073e-08, global = -2.13068e-10, cumulative = 1.09506e-06
smoothSolver:  Solving for epsilon, Initial residual = 3.88742e-06, Final residual = 3.88742e-06, No Iterations 0
smoothSolver:  Solving for k, Initial residual = 1.36448e-07, Final residual = 1.36448e-07, No Iterations 0
ExecutionTime = 8.83 s  ClockTime = 9 s

Time = 29.7

smoothSolver:  Solving for Ux, Initial residual = 0.0180366, Final residual = 9.89569e-07, No Iterations 2
smoothSolver:  Solving for Uy, Initial residual = 0.00734926, Final residual = 2.3687e-07, No Iterations 2
smoothSolver:  Solving for Uz, Initial residual = 0.00667656, Final residual = 2.06981e-07, No Iterations 2
GAMG:  Solving for p, Initial residual = 0.00530854, Final residual = 9.46089e-07, No Iterations 12
time step continuity errors : sum local = 1.77167e-08, global = -5.15468e-10, cumulative = 1.09454e-06
smoothSolver:  Solving for epsilon, Initial residual = 3.88736e-06, Final residual = 3.88736e-06, No Iterations 0
smoothSolver:  Solving for k, Initial residual = 1.36035e-07, Final residual = 1.36035e-07, No Iterations 0
ExecutionTime = 8.84 s  ClockTime = 9 s

Time = 29.75

smoothSolver:  Solving for Ux, Initial residual = 0.0177919, Final residual = 1.08264e-06, No Iterations 2
smoothSolver:  Solving for Uy, Initial residual = 0.00735214, Final residual = 2.34995e-07, No Iterations 2
smoothSolver:  Solving for Uz, Initial residual = 0.00668654, Final residual = 2.10427e-07, No Iterations 2
GAMG:  Solving for p, Initial residual = 0.00448623, Final residual = 6.93003e-07, No Iterations 13
time step continuity errors : sum local = 1.59108e-08, global = -5.18725e-10, cumulative = 1.09402e-06
smoothSolver:  Solving for epsilon, Initial residual = 3.88728e-06, Final residual = 3.88728e-06, No Iterations 0
smoothSolver:  Solving for k, Initial residual = 1.35536e-07, Final residual = 1.35536e-07, No Iterations 0
ExecutionTime = 8.86 s  ClockTime = 9 s

Time = 29.8

smoothSolver:  Solving for Ux, Initial residual = 0.017473, Final residual = 1.15283e-06, No Iterations 2
smoothSolver:  Solving for Uy, Initial residual = 0.00734311, Final residual = 2.32227e-07, No Iterations 2
smoothSolver:  Solving for Uz, Initial residual = 0.00668358, Final residual = 2.10882e-07, No Iterations 2
GAMG:  Solving for p, Initial residual = 0.00352915, Final residual = 9.89991e-07, No Iterations 10
time step continuity errors : sum local = 2.90912e-08, global = -4.95109e-10, cumulative = 1.09353e-06
smoothSolver:  Solving for epsilon, Initial residual = 3.88718e-06, Final residual = 3.88718e-06, No Iterations 0
smoothSolver:  Solving for k, Initial residual = 1.34953e-07, Final residual = 1.34953e-07, No Iterations 0
ExecutionTime = 8.87 s  ClockTime = 9 s

Time = 29.85

smoothSolver:  Solving for Ux, Initial residual = 0.0178206, Final residual = 1.18761e-06, No Iterations 2
smoothSolver:  Solving for Uy, Initial residual = 0.00734977, Final residual = 2.29515e-07, No Iterations 2
smoothSolver:  Solving for Uz, Initial residual = 0.0066527, Final residual = 2.1099e-07, No Iterations 2
GAMG:  Solving for p, Initial residual = 0.00487037, Final residual = 6.93437e-07, No Iterations 11
time step continuity errors : sum local = 1.41454e-08, global = -4.01892e-11, cumulative = 1.09349e-06
smoothSolver:  Solving for epsilon, Initial residual = 3.88704e-06, Final residual = 3.88704e-06, No Iterations 0
smoothSolver:  Solving for k, Initial residual = 1.34358e-07, Final residual = 1.34358e-07, No Iterations 0
ExecutionTime = 8.88 s  ClockTime = 9 s

Time = 29.9

smoothSolver:  Solving for Ux, Initial residual = 0.0171088, Final residual = 1.27743e-06, No Iterations 2
smoothSolver:  Solving for Uy, Initial residual = 0.00736379, Final residual = 2.29103e-07, No Iterations 2
smoothSolver:  Solving for Uz, Initial residual = 0.00658612, Final residual = 2.10184e-07, No Iterations 2
GAMG:  Solving for p, Initial residual = 0.00551106, Final residual = 8.0959e-07, No Iterations 15
time step continuity errors : sum local = 1.49522e-08, global = -1.07481e-10, cumulative = 1.09338e-06
smoothSolver:  Solving for epsilon, Initial residual = 3.88686e-06, Final residual = 3.88686e-06, No Iterations 0
smoothSolver:  Solving for k, Initial residual = 1.33787e-07, Final residual = 1.33787e-07, No Iterations 0
ExecutionTime = 8.89 s  ClockTime = 9 s

Time = 29.95

smoothSolver:  Solving for Ux, Initial residual = 0.0172835, Final residual = 1.37212e-06, No Iterations 2
smoothSolver:  Solving for Uy, Initial residual = 0.00735385, Final residual = 2.29564e-07, No Iterations 2
smoothSolver:  Solving for Uz, Initial residual = 0.00652096, Final residual = 2.10925e-07, No Iterations 2
GAMG:  Solving for p, Initial residual = 0.00581243, Final residual = 9.67356e-07, No Iterations 19
time step continuity errors : sum local = 1.71268e-08, global = 1.81731e-10, cumulative = 1.09356e-06
smoothSolver:  Solving for epsilon, Initial residual = 3.88666e-06, Final residual = 3.88666e-06, No Iterations 0
smoothSolver:  Solving for k, Initial residual = 1.33208e-07, Final residual = 1.33208e-07, No Iterations 0
ExecutionTime = 8.91 s  ClockTime = 9 s

Time = 30

smoothSolver:  Solving for Ux, Initial residual = 0.0172485, Final residual = 1.43144e-06, No Iterations 2
smoothSolver:  Solving for Uy, Initial residual = 0.00733651, Final residual = 2.31141e-07, No Iterations 2
smoothSolver:  Solving for Uz, Initial residual = 0.00645853, Final residual = 2.11267e-07, No Iterations 2
GAMG:  Solving for p, Initial residual = 0.00658114, Final residual = 7.78764e-07, No Iterations 21
time step continuity errors : sum local = 1.3355e-08, global = -9.46949e-10, cumulative = 1.09262e-06
smoothSolver:  Solving for epsilon, Initial residual = 3.88643e-06, Final residual = 3.88643e-06, No Iterations 0
smoothSolver:  Solving for k, Initial residual = 1.32581e-07, Final residual = 1.32581e-07, No Iterations 0
ExecutionTime = 8.93 s  ClockTime = 9 s

End

